
  EPA STORM WATER MANAGEMENT MODEL - VERSION 5.1 (Build 5.3.0.dev0)
  --------------------------------------------------------------

  WARNING 04: minimum elevation drop used for Conduit WS02004404WS02004405
  WARNING 03: negative offset ignored for Link YS02001904YS02001907
  
  *********************************************************
  NOTE: The summary statistics displayed in this report are
  based on results found at every computational time step,  
  not just on results from each reporting time step.
  *********************************************************
  
  ****************
  Analysis Options
  ****************
  Flow Units ............... LPS
  Process Models:
    Rainfall/Runoff ........ YES
    RDII ................... NO
    Snowmelt ............... NO
    Groundwater ............ NO
    Flow Routing ........... YES
    Ponding Allowed ........ NO
    Water Quality .......... YES
  Infiltration Method ...... HORTON
  Flow Routing Method ...... DYNWAVE
  Surcharge Method ......... EXTRAN
  Starting Date ............ 08/28/2015 08:00:00
  Ending Date .............. 08/28/2015 15:50:00
  Antecedent Dry Days ...... 8.0
  Report Time Step ......... 00:01:00
  Wet Time Step ............ 00:01:00
  Dry Time Step ............ 00:01:00
  Routing Time Step ........ 5.00 sec
  Variable Time Step ....... YES
  Maximum Trials ........... 8
  Number of Threads ........ 4
  Head Tolerance ........... 0.001500 m
  
  
  **************************        Volume         Depth
  Runoff Quantity Continuity     hectare-m            mm
  **************************     ---------       -------
  Total Precipitation ......         6.144        13.452
  Evaporation Loss .........         0.000         0.000
  Infiltration Loss ........         1.064         2.328
  Surface Runoff ...........         4.147         9.079
  Final Storage ............         0.935         2.047
  Continuity Error (%) .....        -0.020
  
  
  **************************           COD            SS            TN            TP         NH4-N
  Runoff Quality Continuity             kg            kg            kg            kg            kg
  **************************    ----------    ----------    ----------    ----------    ----------
  Initial Buildup ..........     41378.656     70582.865      1804.177       168.684      1032.807
  Surface Buildup ..........        21.799        40.924         2.400         0.218         1.395
  Wet Deposition ...........         0.000         0.000         0.000         0.000         0.000
  Sweeping Removal .........         0.000         0.000         0.000         0.000         0.000
  Infiltration Loss ........        97.311       184.943         1.849         0.130         0.881
  BMP Removal ..............         0.000         0.000         0.000         0.000         0.000
  Surface Runoff ...........      3769.819      7064.251        72.781         4.964        34.599
  Remaining Buildup ........     37531.916     63371.884      1731.919       163.806       998.709
  Continuity Error (%) .....         0.003         0.004         0.002         0.001         0.001
  
  
  **************************        Volume        Volume
  Flow Routing Continuity        hectare-m      10^6 ltr
  **************************     ---------     ---------
  Dry Weather Inflow .......         0.616         6.165
  Wet Weather Inflow .......         4.145        41.452
  Groundwater Inflow .......         0.000         0.000
  RDII Inflow ..............         0.000         0.000
  External Inflow ..........         0.102         1.024
  External Outflow .........         1.890        18.902
  Flooding Loss ............         2.510        25.096
  Evaporation Loss .........         0.000         0.000
  Exfiltration Loss ........         0.000         0.000
  Initial Stored Volume ....         0.076         0.761
  Final Stored Volume ......         0.653         6.533
  Continuity Error (%) .....        -2.288
  
  
  **************************           COD            SS            TN            TP         NH4-N
  Quality Routing Continuity            kg            kg            kg            kg            kg
  **************************    ----------    ----------    ----------    ----------    ----------
  Dry Weather Inflow .......      1541.201      2465.922       147.955        18.494        92.472
  Wet Weather Inflow .......      3769.060      7062.988        72.764         4.963        34.592
  Groundwater Inflow .......         0.000         0.000         0.000         0.000         0.000
  RDII Inflow ..............         0.000         0.000         0.000         0.000         0.000
  External Inflow ..........       183.418       293.469        17.608         2.201        11.005
  External Outflow .........      2306.246      3986.593       146.761        17.262        88.771
  Flooding Loss ............      2495.832      4640.830        63.897         5.549        33.536
  Exfiltration Loss ........         0.000         0.000         0.000         0.000         0.000
  Mass Reacted .............         0.000         0.000         0.000         0.000         0.000
  Initial Stored Mass ......         0.000         0.000         0.000         0.000         0.000
  Final Stored Mass ........       557.982       964.049        24.511         2.607        14.173
  Continuity Error (%) .....         2.432         2.351         1.325         0.941         1.151
  
  
  *************************
  Highest Continuity Errors
  *************************
  Node HS02004842 (13.41%)
  Node YS02001884 (11.02%)
  Node JK-storage (-10.50%)
  Node HS02004817 (2.53%)
  Node YSB1171 (2.46%)
  
  
  ***************************
  Time-Step Critical Elements
  ***************************
  Link WS02006252WS02006251 (64.92%)
  Link WS02006280WS02006229 (10.72%)
  Link YS02006556YS02006558 (5.88%)
  Link WS02006238WS02006235 (4.54%)
  Link YS02001793JiankangQianchi (3.91%)
  
  
  ********************************
  Highest Flow Instability Indexes
  ********************************
  Link WS02006113WS02006111 (44)
  Link YS02163301YS02001633 (25)
  Link YS02001774YS02001770 (25)
  Link YS02001629YS02163301 (25)
  Link YS02163601YS02164001 (24)
  
  
  *************************
  Routing Time Step Summary
  *************************
  Minimum Time Step           :     0.10 sec
  Average Time Step           :     1.20 sec
  Maximum Time Step           :     5.00 sec
  Percent in Steady State     :    -0.00
  Average Iterations per Step :     3.75
  Percent Not Converging      :    12.71
  
  
  ***************************
  Subcatchment Runoff Summary
  ***************************
  
  ------------------------------------------------------------------------------------------------------------------------------
                            Total      Total      Total      Total     Imperv       Perv      Total       Total     Peak  Runoff
                           Precip      Runon       Evap      Infil     Runoff     Runoff     Runoff      Runoff   Runoff   Coeff
  Subcatchment                 mm         mm         mm         mm         mm         mm         mm    10^6 ltr      LPS
  ------------------------------------------------------------------------------------------------------------------------------
  sub0                      13.45       0.00       0.00       0.63      12.47       0.31      12.77        0.01     3.75   0.950
  sub1                      13.45       0.00       0.00       1.12      11.88       0.36      12.24        0.08    25.66   0.910
  sub2                      13.45       0.00       0.00       4.44       8.39       0.53       8.92        0.08    25.29   0.663
  sub3                      13.45       0.00       0.00       4.56       8.35       0.42       8.77        0.20    55.75   0.652
  sub4                      13.45       0.00       0.00       1.22      11.71       0.26      11.97        0.25    65.52   0.890
  sub5                      13.45       0.00       0.00       0.68      12.41       0.26      12.67        0.14    44.76   0.942
  sub7                      13.45       0.00       0.00       0.86      12.18       0.35      12.53        0.04    14.26   0.931
  sub8                      13.45       0.00       0.00       0.87      12.17       0.34      12.50        0.08    26.26   0.930
  sub9                      13.45       0.00       0.00       0.88      12.17       0.33      12.50        0.06    19.64   0.929
  sub10                     13.45       0.00       0.00       0.78      12.29       0.29      12.58        0.14    44.00   0.935
  sub11                     13.45       0.00       0.00       0.77      12.30       0.31      12.61        0.15    48.45   0.938
  sub12                     13.45       0.00       0.00       1.25      11.66       0.50      12.16        0.11    38.10   0.904
  sub14                     13.45       0.00       0.00       0.88      12.16       0.33      12.49        0.12    38.67   0.929
  sub15                     13.45       0.00       0.00       3.37       9.35       0.66      10.01        0.17    57.01   0.744
  sub16                     13.45       0.00       0.00       3.56       8.97       0.88       9.85        0.10    37.63   0.732
  sub17                     13.45       0.00       0.00       3.47       9.10       0.84       9.94        0.09    30.67   0.739
  sub22                     13.45       0.00       0.00       4.98       7.63       0.81       8.43        0.53   184.54   0.627
  sub23                     13.45       0.00       0.00       4.17       8.43       0.81       9.24        0.44   154.22   0.687
  sub60                     13.45       0.00       0.00       1.53       9.85       0.09       9.93        3.01   438.14   0.738
  sub61                     13.45       0.00       0.00       2.16       9.95       0.12      10.07        3.11   536.45   0.749
  sub62                     13.45       0.00       0.00       0.98      10.84       0.10      10.94        3.36   552.35   0.813
  sub63                     13.45       0.00       0.00       3.77       8.69       0.14       8.83        2.67   492.63   0.656
  sub64                     13.45       0.00       0.00       1.93       9.45       0.09       9.54        2.90   416.72   0.709
  sub65                     13.45       0.00       0.00       1.67       9.61       0.08       9.70        2.98   423.09   0.721
  sub66                     13.45       0.00       0.00       3.81       8.10       0.09       8.18        2.51   380.66   0.608
  sub67                     13.45       0.00       0.00       0.95      11.38       0.13      11.51        3.55   679.52   0.856
  sub68                     13.45       0.00       0.00       1.75      10.45       0.13      10.59        3.26   586.26   0.787
  sub69                     13.45       0.00       0.00       1.83      10.79       0.19      10.98        2.57   544.72   0.816
  sub70                     13.45      11.20       0.00       7.51      14.65       0.88      15.52        3.55   494.81   0.630
  sub71                     13.45       0.00       0.00       0.99      10.58       0.09      10.67        2.52   389.24   0.793
  sub72                     13.45       0.00       0.00       0.89       8.56       0.05       8.61        1.75   189.18   0.640
  1                         13.45      15.11       0.00       1.37      16.56       4.63      21.19        4.98   484.42   0.742
  2                         13.45       0.00       0.00       3.02       3.21       1.96       5.17        2.07   340.45   0.384
  
  
  ****************************
  Subcatchment Washoff Summary
  ****************************
  
  ------------------------------------------------------------------------------------------
                                 COD            SS            TN            TP         NH4-N
  Subcatchment                    kg            kg            kg            kg            kg
  ------------------------------------------------------------------------------------------
  sub0                         2.670         5.197         0.046         0.004         0.022
  sub1                        11.241        22.423         0.210         0.015         0.101
  sub2                         6.894        13.384         0.145         0.010         0.067
  sub3                        16.924        32.573         0.350         0.024         0.161
  sub4                        25.772        51.904         0.510         0.031         0.245
  sub5                        25.778        50.682         0.460         0.035         0.223
  sub7                         5.751        11.638         0.108         0.007         0.052
  sub8                         8.581        17.755         0.171         0.010         0.082
  sub9                         7.353        15.005         0.142         0.009         0.068
  sub10                       21.202        42.223         0.389         0.028         0.188
  sub11                       20.657        41.614         0.386         0.026         0.187
  sub12                       17.724        35.094         0.321         0.024         0.155
  sub14                       15.732        31.800         0.298         0.020         0.144
  sub15                       20.231        39.321         0.389         0.028         0.182
  sub16                       13.129        25.518         0.249         0.019         0.117
  sub17                       12.049        23.208         0.222         0.017         0.105
  sub22                       62.582       119.432         1.186         0.090         0.554
  sub23                       36.683        72.439         0.776         0.051         0.357
  sub60                      243.520       456.962         4.842         0.298         2.321
  sub61                      302.151       564.434         5.627         0.386         2.710
  sub62                      313.722       596.076         6.119         0.388         2.938
  sub63                      223.275       410.850         4.468         0.314         2.075
  sub64                      305.877       553.773         5.626         0.410         2.687
  sub65                      313.037       569.066         5.795         0.415         2.772
  sub66                      176.068       321.340         3.608         0.236         1.687
  sub67                      466.222       877.505         8.365         0.616         4.045
  sub68                      332.037       626.413         6.347         0.429         3.034
  sub69                      298.258       568.561         5.590         0.393         2.674
  sub70                      502.897       962.303        10.037         0.699         4.710
  sub71                      206.745       396.330         4.242         0.246         2.030
  sub72                      164.385       293.107         3.069         0.210         1.476
  1                          349.075       671.606         7.102         0.495         3.297
  2                           42.749        75.577         1.214         0.073         0.518
  ------------------------------------------------------------------------------------------
  System                    4570.974      8595.115        88.408         6.057        41.983
  
  
  ******************
  Node Depth Summary
  ******************
  
  ---------------------------------------------------------------------------------
                                 Average  Maximum  Maximum  Time of Max    Reported
                                   Depth    Depth      HGL   Occurrence   Max Depth
  Node                 Type       Meters   Meters   Meters  days hr:min      Meters
  ---------------------------------------------------------------------------------
  WS02001211           JUNCTION     0.77     0.85     5.69     0  03:07        0.85
  WS02001212           JUNCTION     0.48     0.58     5.64     0  03:05        0.58
  WS02001213           JUNCTION     0.71     0.85     5.62     0  03:05        0.85
  WS02003069           JUNCTION     0.51     0.72     5.31     0  03:05        0.72
  WS02003072           JUNCTION     0.57     0.76     5.13     0  03:05        0.76
  WS02003073           JUNCTION     0.35     0.48     4.55     0  03:06        0.48
  WS02003060           JUNCTION     0.45     0.64     5.57     0  03:04        0.63
  WS02003066           JUNCTION     0.24     0.39     5.94     0  03:03        0.39
  WS02003059           JUNCTION     0.76     0.91     5.60     0  03:04        0.91
  WS02003067           JUNCTION     0.59     0.83     6.15     0  03:03        0.82
  WS02004401           JUNCTION     0.71     1.27     7.27     0  03:02        1.25
  WS02004402           JUNCTION     0.74     1.25     7.21     0  03:02        1.24
  WS02004403           JUNCTION     0.75     1.22     7.15     0  03:02        1.21
  WS02004404           JUNCTION     0.83     1.26     7.11     0  03:01        1.25
  WS02004406           JUNCTION     0.83     1.18     7.01     0  03:02        1.17
  WS02004409           JUNCTION     0.52     0.97     6.74     0  03:03        0.97
  WS02004410           JUNCTION     0.53     0.95     6.67     0  03:03        0.95
  WS02004411           JUNCTION     0.55     0.94     6.62     0  03:03        0.93
  WS02004412           JUNCTION     0.56     0.91     6.55     0  03:03        0.91
  WS02004413           JUNCTION     0.72     1.03     6.50     0  03:03        1.03
  WS02004405           JUNCTION     0.82     1.24     7.09     0  03:01        1.22
  WS02006109           JUNCTION     0.80     1.72     8.34     0  03:02        1.72
  WS02006110           JUNCTION     0.78     1.51     8.09     0  03:01        1.50
  WS02006111           JUNCTION     0.24     0.94     7.64     0  03:02        0.93
  WS02006112           JUNCTION     0.88     1.60     7.48     0  03:02        1.60
  WS02006113           JUNCTION     0.36     0.98     7.87     0  03:02        0.98
  WS02006115           JUNCTION     0.60     1.26     7.40     0  03:02        1.25
  WS02006116           JUNCTION     0.68     1.30     7.34     0  03:02        1.29
  WS02006230           JUNCTION     0.80     1.94     8.69     0  03:02        1.94
  WS02006231           JUNCTION     0.54     1.58     8.71     0  03:02        1.58
  WS02006232           JUNCTION     0.68     1.68     8.72     0  03:02        1.68
  WS02006234           JUNCTION     0.61     1.58     8.74     0  03:01        1.58
  WS02006235           JUNCTION     0.65     1.59     8.76     0  03:02        1.59
  WS02006238           JUNCTION     0.67     1.61     8.76     0  03:01        1.60
  WS02006240           JUNCTION     0.57     1.45     8.74     0  03:01        1.44
  WS02006242           JUNCTION     0.61     1.46     8.73     0  03:01        1.45
  WS02006243           JUNCTION     0.49     1.30     8.72     0  03:01        1.29
  WS02006245           JUNCTION     0.46     1.22     8.71     0  03:01        1.21
  WS02006247           JUNCTION     0.47     1.20     8.70     0  03:01        1.19
  WS02006248           JUNCTION     0.41     1.10     8.69     0  03:00        1.10
  WS02006249           JUNCTION     0.43     1.09     8.69     0  02:54        1.09
  WS02006239           JUNCTION     0.62     1.54     8.75     0  03:01        1.53
  WS02006251           JUNCTION     0.40     1.37     9.04     0  02:54        1.27
  WS02006252           JUNCTION     0.27     0.83     9.07     0  05:10        0.82
  WS02006253           JUNCTION     0.43     1.45     9.09     0  02:54        1.32
  WS02006256           JUNCTION     1.75     2.35     9.28     0  00:12        2.35
  WS02004138           JUNCTION     0.19     0.20     7.45     0  00:00        0.19
  WS02004139           JUNCTION     0.72     0.79     5.70     0  03:07        0.79
  WS02004407           JUNCTION     0.23     0.40     6.71     0  03:02        0.40
  WS02006228           JUNCTION     0.81     1.90     8.55     0  03:02        1.89
  WS02006229           JUNCTION     0.79     1.97     8.66     0  03:02        1.97
  WS02006280           JUNCTION     0.07     0.31     8.58     0  03:01        0.31
  WS02006284           JUNCTION     0.37     0.65     9.04     0  03:02        0.64
  WS02006287           JUNCTION     0.10     0.39     9.34     0  03:02        0.39
  WSF200               JUNCTION     0.23     0.44     5.67     0  03:03        0.44
  HS02004901           JUNCTION     0.13     0.38    10.20     0  03:01        0.37
  HS02004881           JUNCTION     0.01     0.05     9.08     0  03:01        0.05
  HS02004876           JUNCTION     0.04     0.16     9.19     0  03:01        0.16
  HS02004870           JUNCTION     0.02     0.09     9.38     0  03:01        0.09
  HS02004862           JUNCTION     0.02     0.11     9.49     0  03:01        0.11
  HS02004856           JUNCTION     0.08     0.15     9.58     0  03:01        0.15
  HS02004852           JUNCTION     0.01     0.07     9.59     0  03:02        0.07
  HS02004848           JUNCTION     0.01     0.07     9.67     0  03:01        0.07
  HS02004842           JUNCTION     0.34     0.40     9.67     0  03:01        0.40
  HS02004837           JUNCTION     0.03     0.09     9.67     0  03:01        0.09
  HS02004830           JUNCTION     0.04     0.10     9.57     0  03:01        0.10
  HS02004824           JUNCTION     0.02     0.13     9.53     0  03:02        0.13
  HS02004817           JUNCTION     0.44     0.69     9.54     0  03:02        0.69
  HS02004807           JUNCTION     0.13     0.36     9.53     0  03:02        0.36
  HS02004802           JUNCTION     0.17     0.39     9.52     0  03:02        0.39
  HS02004799           JUNCTION     0.12     0.46     9.68     0  03:01        0.46
  HS02004792           JUNCTION     0.03     0.22     9.74     0  03:01        0.21
  HS02004788           JUNCTION     0.03     0.16    10.05     0  03:02        0.16
  HS02004785           JUNCTION     0.05     0.25    10.15     0  03:02        0.25
  HS02004777           JUNCTION     0.15     0.39    10.19     0  03:01        0.39
  HS02004770           JUNCTION     0.12     0.37    10.20     0  03:01        0.36
  HS02004480           JUNCTION     0.08     0.38     9.62     0  03:01        0.38
  HS02004479           JUNCTION     0.12     0.42     9.62     0  03:01        0.42
  HS02004478           JUNCTION     0.06     0.28     9.50     0  03:01        0.28
  YS02001745           JUNCTION     0.74     0.95     8.46     0  03:00        0.94
  YS02001748           JUNCTION     1.14     2.27     9.35     0  02:32        1.38
  YS02001751           JUNCTION     1.32     2.18     9.06     0  02:32        1.56
  YS02001754           JUNCTION     1.57     2.11     8.72     0  02:32        1.83
  YS02001762           JUNCTION     1.77     2.05     8.45     0  02:54        2.03
  YS02001765           JUNCTION     1.72     2.00     8.45     0  02:54        1.98
  YS02001767           JUNCTION     1.69     1.95     8.44     0  03:00        1.94
  YS02001770           JUNCTION     1.68     1.94     8.43     0  03:00        1.93
  YS02001774           JUNCTION     1.75     1.99     8.41     0  03:00        1.98
  YS02001779           JUNCTION     1.50     1.68     8.37     0  02:32        1.68
  YS02001882           JUNCTION     0.54     1.64     8.35     0  03:00        1.63
  YS02001884           JUNCTION     0.64     1.74     8.36     0  03:00        1.73
  YS02001759           JUNCTION     1.81     2.09     8.45     0  02:54        2.07
  YS02001887           JUNCTION     0.72     1.82     8.35     0  03:00        1.80
  YS02001890           JUNCTION     0.75     1.81     8.32     0  02:50        1.81
  YS02001898           JUNCTION     0.51     1.56     8.30     0  02:53        1.55
  YS02001901           JUNCTION     0.63     1.68     8.29     0  02:52        1.67
  YS02001904           JUNCTION     0.61     1.64     8.27     0  02:58        1.63
  YS02001907           JUNCTION     0.94     1.96     8.25     0  02:50        1.96
  YS02001910           JUNCTION     0.73     1.78     8.29     0  02:51        1.77
  YS02001915           JUNCTION     0.53     1.60     8.32     0  02:52        1.59
  YS02001918           JUNCTION     0.29     1.28     8.35     0  02:51        1.26
  YS02001619           JUNCTION     1.28     1.59     8.52     0  02:32        1.48
  YS02001629           JUNCTION     1.63     1.85     8.40     0  02:32        1.84
  YS02001641           JUNCTION     1.73     1.94     8.37     0  03:00        1.93
  YS02001644           JUNCTION     1.74     1.92     8.35     0  02:39        1.92
  YS02001652           JUNCTION     1.59     2.16     8.76     0  02:25        1.87
  YS02001655           JUNCTION     1.35     2.20     9.05     0  02:25        1.71
  YS02001920           JUNCTION     0.39     1.36     8.37     0  02:51        1.34
  YS02001923           JUNCTION     0.23     1.12     8.38     0  02:51        1.10
  YS02001926           JUNCTION     0.28     0.94     8.39     0  02:51        0.94
  YS02001929           JUNCTION     0.16     0.71     8.40     0  02:51        0.71
  YS02001658           JUNCTION     1.08     2.22     9.36     0  02:46        1.56
  YS02001661           JUNCTION     0.85     2.46     9.86     0  02:46        1.46
  YS02001664           JUNCTION     0.38     0.57     8.49     0  02:42        0.56
  YS02001622           JUNCTION     1.30     1.56     8.46     0  02:32        1.50
  YS02001633           JUNCTION     1.72     1.95     8.40     0  03:00        1.94
  YS02001649           JUNCTION     1.78     2.05     8.44     0  02:43        2.03
  YS02001757           JUNCTION     1.91     2.17     8.43     0  02:54        2.16
  YS02001895           JUNCTION     0.51     1.57     8.31     0  02:53        1.56
  YS02001625           JUNCTION     1.59     1.78     8.38     0  02:32        1.78
  YS02163301           JUNCTION     1.66     1.90     8.42     0  02:32        1.88
  YS02163601           JUNCTION     1.78     1.99     8.39     0  03:00        1.98
  YS02164001           JUNCTION     1.71     1.92     8.38     0  03:00        1.91
  YS02001647           JUNCTION     1.57     1.80     8.41     0  02:45        1.78
  YSB1154              JUNCTION     0.26     0.57     9.62     0  03:01        0.57
  YSB6556              JUNCTION     0.15     0.45     9.62     0  03:02        0.45
  YSB1174              JUNCTION     0.21     0.52     9.62     0  03:01        0.51
  YSB1171              JUNCTION     0.41     0.72     9.62     0  03:01        0.72
  YS02006553           JUNCTION     0.94     2.13     8.41     0  02:53        1.96
  YS02006561           JUNCTION     0.30     1.65     8.31     0  02:53        1.08
  YS02006556           JUNCTION     0.91     2.30     8.61     0  02:53        1.93
  YS02006558           JUNCTION     0.95     2.41     8.68     0  02:53        1.97
  YS02001783           JUNCTION     0.52     2.18     8.32     0  02:53        1.48
  YS02001784           JUNCTION     0.53     2.19     8.26     0  02:53        1.41
  YS02001786           JUNCTION     0.47     2.23     8.26     0  02:53        1.26
  YS02001788           JUNCTION     0.40     2.22     8.20     0  02:53        1.12
  YS02001790           JUNCTION     0.51     1.96     7.60     0  02:52        1.29
  YS02001791           JUNCTION     0.47     1.66     7.13     0  02:53        1.27
  YS02001793           JUNCTION     0.63     1.94     6.77     0  02:53        1.80
  WSC                  OUTFALL      0.35     0.48     1.15     0  03:06        0.48
  JK-storage           STORAGE      2.60     5.80     6.60     0  02:07        5.80
  CC-storage           STORAGE      1.16     1.43     8.43     0  03:23        1.43
  XR-storage           STORAGE      6.69     7.72     5.72     0  02:57        7.72
  
  
  *******************
  Node Inflow Summary
  *******************
  
  -------------------------------------------------------------------------------------------------
                                  Maximum  Maximum                  Lateral       Total        Flow
                                  Lateral    Total  Time of Max      Inflow      Inflow     Balance
                                   Inflow   Inflow   Occurrence      Volume      Volume       Error
  Node                 Type           LPS      LPS  days hr:min    10^6 ltr    10^6 ltr     Percent
  -------------------------------------------------------------------------------------------------
  WS02001211           JUNCTION      7.35   390.89     0  03:21       0.207          10       0.405
  WS02001212           JUNCTION      0.00   394.39     0  03:21           0        9.98       0.245
  WS02001213           JUNCTION      0.00   397.49     0  03:21           0        9.96       0.290
  WS02003069           JUNCTION      0.32  1336.37     0  03:04     0.00902          19       0.189
  WS02003072           JUNCTION      0.00  1335.88     0  03:05           0        18.9       0.227
  WS02003073           JUNCTION      1.82  1338.60     0  03:05      0.0514          19       0.265
  WS02003060           JUNCTION     16.53  1334.43     0  03:04       0.466          19       0.178
  WS02003066           JUNCTION      0.00   947.86     0  03:03           0        8.66       0.053
  WS02003059           JUNCTION      0.00   401.56     0  03:21           0        9.93       0.413
  WS02003067           JUNCTION      0.00   945.97     0  03:04           0        8.67       0.111
  WS02004401           JUNCTION      0.00   955.63     0  03:02           0         8.9       0.230
  WS02004402           JUNCTION      0.00   955.98     0  03:02           0        8.88       0.219
  WS02004403           JUNCTION      0.00   956.54     0  03:02           0        8.86       0.200
  WS02004404           JUNCTION      0.16   956.43     0  03:02     0.00457        8.84       0.151
  WS02004406           JUNCTION      0.00   956.99     0  03:02           0        8.81       0.370
  WS02004409           JUNCTION      0.00   954.68     0  03:02           0        8.77       0.191
  WS02004410           JUNCTION      0.00   948.76     0  03:02           0        8.76       0.216
  WS02004411           JUNCTION      0.00   943.89     0  03:03           0        8.74       0.223
  WS02004412           JUNCTION      0.00   945.16     0  03:03           0        8.72       0.240
  WS02004413           JUNCTION      0.00   945.91     0  03:04           0         8.7       0.354
  WS02004405           JUNCTION      0.04   956.63     0  03:02     0.00107        8.83       0.228
  WS02006109           JUNCTION      1.23   929.77     0  03:02      0.0347        8.92       0.173
  WS02006110           JUNCTION      0.00   930.08     0  03:02           0        8.91       0.213
  WS02006111           JUNCTION      0.00   930.25     0  03:02           0        8.88       0.038
  WS02006112           JUNCTION     30.67   955.06     0  03:02      0.0853        8.96       0.313
  WS02006113           JUNCTION      0.00   930.28     0  03:02           0        8.89       0.101
  WS02006115           JUNCTION      0.00   954.83     0  03:02           0        8.93       0.212
  WS02006116           JUNCTION      0.00   955.71     0  03:02           0        8.91       0.193
  WS02006230           JUNCTION     10.28   533.12     0  07:11        0.29        6.49       0.191
  WS02006231           JUNCTION      0.00   522.86     0  07:11           0        6.21       0.119
  WS02006232           JUNCTION      0.00   523.31     0  07:11           0        6.23       0.246
  WS02006234           JUNCTION      0.00   522.91     0  07:10           0        6.23       0.095
  WS02006235           JUNCTION      0.00   523.93     0  07:11           0        6.31       0.157
  WS02006238           JUNCTION      0.00   335.16     0  06:03           0        2.95       0.204
  WS02006240           JUNCTION      0.00   344.80     0  06:02           0         2.9       0.366
  WS02006242           JUNCTION      0.00   352.67     0  06:02           0        2.88       0.462
  WS02006243           JUNCTION      0.00   360.63     0  06:01           0        2.87       0.235
  WS02006245           JUNCTION      0.00   366.27     0  06:01           0        2.87       0.370
  WS02006247           JUNCTION      0.00   370.60     0  06:01           0        2.88       0.237
  WS02006248           JUNCTION      0.00   375.88     0  06:01           0        2.89       0.095
  WS02006249           JUNCTION      0.00   537.80     0  03:00           0        3.16       0.352
  WS02006239           JUNCTION      0.00   337.60     0  06:03           0        2.92       0.197
  WS02006251           JUNCTION      0.08   536.17     0  03:00     0.00217        3.22       0.253
  WS02006252           JUNCTION      0.00   399.91     0  03:00           0         2.7       0.017
  WS02006253           JUNCTION      3.75   143.72     0  03:01      0.0103        0.52       0.702
  WS02006256           JUNCTION      0.00   983.00     0  02:20           0        9.87       0.010
  WS02004138           JUNCTION      0.00   380.00     0  00:00           0        9.86       0.068
  WS02004139           JUNCTION      0.32   394.45     0  00:00     0.00905        9.86       0.464
  WS02004407           JUNCTION      0.00   957.43     0  03:02           0        8.78       0.082
  WS02006228           JUNCTION      0.00   928.55     0  03:02           0         8.9       0.133
  WS02006229           JUNCTION      0.00   962.16     0  03:01           0        8.91       0.139
  WS02006280           JUNCTION      0.00   680.21     0  03:02           0        2.43       0.010
  WS02006284           JUNCTION      0.10   679.07     0  03:02      0.0027        2.43       0.046
  WS02006287           JUNCTION      0.00   677.73     0  03:02           0        2.43       0.032
  WSF200               JUNCTION      0.00   948.66     0  03:04           0        8.65       0.051
  HS02004901           JUNCTION     37.63    37.63     0  03:01       0.103       0.103       1.741
  HS02004881           JUNCTION     14.26   140.53     0  03:01      0.0422       0.463       0.072
  HS02004876           JUNCTION     25.66   127.65     0  03:01      0.0814       0.422       0.130
  HS02004870           JUNCTION     26.26   103.60     0  03:01      0.0799        0.34       0.035
  HS02004862           JUNCTION     25.49    79.37     0  03:01      0.0888       0.261       0.068
  HS02004856           JUNCTION     19.64    55.41     0  03:01      0.0601       0.173       0.844
  HS02004852           JUNCTION      0.00    37.85     0  03:01           0       0.113       0.053
  HS02004848           JUNCTION     55.75    55.75     0  03:01       0.197       0.197       0.028
  HS02004842           JUNCTION      0.00    16.84     0  03:01           0       0.097      15.492
  HS02004837           JUNCTION     50.35    65.69     0  03:01       0.318       0.402       0.204
  HS02004830           JUNCTION      0.15    64.80     0  03:01     0.00423       0.392       0.316
  HS02004824           JUNCTION     65.57   128.45     0  03:01       0.251       0.642       0.086
  HS02004817           JUNCTION      0.60   124.47     0  03:01      0.0169       0.658       2.599
  HS02004807           JUNCTION     48.45   165.75     0  03:01       0.147       0.788       0.555
  HS02004802           JUNCTION      0.00   165.32     0  03:04           0       0.785       0.506
  HS02004799           JUNCTION     38.67   446.07     0  03:01       0.119        1.42       0.191
  HS02004792           JUNCTION    184.82   411.86     0  03:01        0.54         1.3       0.033
  HS02004788           JUNCTION     58.68   233.45     0  03:02       0.219       0.758       0.052
  HS02004785           JUNCTION      0.15   182.24     0  03:01     0.00423        0.54       0.094
  HS02004777           JUNCTION      0.03   185.03     0  03:01    0.000846       0.541       0.972
  HS02004770           JUNCTION    154.22   188.92     0  03:01       0.441       0.542       0.578
  HS02004480           JUNCTION      0.00   517.26     0  03:01           0        1.66       0.069
  HS02004479           JUNCTION      0.00    75.47     0  03:02           0       0.258       0.286
  HS02004478           JUNCTION      0.00   677.13     0  03:02           0        2.43       0.011
  YS02001745           JUNCTION    438.14   438.14     0  03:01        3.01        3.02       0.375
  YS02001748           JUNCTION      0.04   595.91     0  02:32     0.00127        3.01       0.687
  YS02001751           JUNCTION      0.01   443.50     0  03:01     0.00031        2.98       0.793
  YS02001754           JUNCTION      0.26   444.15     0  03:01     0.00733        2.96       0.848
  YS02001762           JUNCTION      0.00   315.68     0  02:43           0        1.96       1.082
  YS02001765           JUNCTION      0.00   316.05     0  02:43           0        1.96       1.255
  YS02001767           JUNCTION      0.54   316.09     0  02:43      0.0151        1.99       1.834
  YS02001770           JUNCTION    552.50   649.23     0  03:01        3.37        4.09       0.775
  YS02001774           JUNCTION      0.00   650.68     0  03:01           0        2.81       0.904
  YS02001779           JUNCTION      0.01   650.20     0  03:01    0.000141        2.78       0.561
  YS02001882           JUNCTION      0.00    12.04     0  02:43           0      0.0198      12.279
  YS02001884           JUNCTION      0.00    20.13     0  02:35           0      0.0555      12.391
  YS02001759           JUNCTION    536.49   622.82     0  02:43        3.11        4.32       0.535
  YS02001887           JUNCTION    679.97   681.32     0  03:01        3.56        3.59       0.241
  YS02001890           JUNCTION      0.00   680.35     0  03:01           0        3.55       0.262
  YS02001898           JUNCTION      0.00   518.26     0  03:01           0        3.45       0.093
  YS02001901           JUNCTION      0.00   517.91     0  02:57           0        3.45       0.196
  YS02001904           JUNCTION      0.00   518.19     0  03:04           0        3.44       0.180
  YS02001907           JUNCTION      0.00  1112.08     0  03:01           0        7.77       0.315
  YS02001910           JUNCTION      0.00   594.68     0  03:01           0        4.34       0.278
  YS02001915           JUNCTION    389.26   594.52     0  03:01        2.52        4.35       0.135
  YS02001918           JUNCTION      0.00   258.39     0  02:52           0        1.84       0.082
  YS02001619           JUNCTION    380.66   380.66     0  03:01        2.51        2.51       0.484
  YS02001629           JUNCTION      0.00   196.45     0  02:39           0        1.59       1.854
  YS02001641           JUNCTION      0.00   413.92     0  02:39           0        4.45       0.474
  YS02001644           JUNCTION    416.76  1493.40     0  03:01         2.9        11.3       0.231
  YS02001652           JUNCTION      0.00   504.35     0  03:01           0        2.62       0.916
  YS02001655           JUNCTION      0.15   503.58     0  03:01     0.00434        2.64       0.914
  YS02001920           JUNCTION      2.87   258.64     0  02:52      0.0809        1.84       0.154
  YS02001923           JUNCTION      0.04   229.11     0  02:52     0.00106        1.75       0.052
  YS02001926           JUNCTION      0.05   200.05     0  03:01     0.00147        1.75       0.198
  YS02001929           JUNCTION    189.18   189.18     0  03:01        1.75        1.75       0.036
  YS02001658           JUNCTION      0.00   610.57     0  02:29           0        2.68       0.814
  YS02001661           JUNCTION      0.00   670.17     0  02:42           0        3.03       0.138
  YS02001664           JUNCTION    492.63   492.63     0  03:01        2.67        3.02       0.191
  YS02001622           JUNCTION      0.00   381.54     0  03:01           0         2.5       1.295
  YS02001633           JUNCTION    423.29   423.29     0  03:01        2.99        4.52       0.717
  YS02001649           JUNCTION      0.00   871.46     0  02:40           0        6.38       0.586
  YS02001757           JUNCTION      0.00  1676.31     0  02:40           0        8.99       1.032
  YS02001895           JUNCTION      0.00   517.94     0  03:00           0        3.45       0.146
  YS02001625           JUNCTION      0.00   408.69     0  03:01           0        2.48       1.592
  YS02163301           JUNCTION      0.00   200.70     0  02:33           0        1.57       1.554
  YS02163601           JUNCTION      0.11   413.22     0  02:39      0.0031        4.48       0.673
  YS02164001           JUNCTION      0.00   413.19     0  02:39           0        4.46       0.459
  YS02001647           JUNCTION      0.00   717.23     0  03:24           0        5.55       0.514
  YSB1154              JUNCTION     44.76    44.76     0  03:01       0.144       0.144       1.017
  YSB6556              JUNCTION      0.00    43.28     0  03:01           0       0.145       0.869
  YSB1174              JUNCTION     38.10    38.10     0  03:01       0.106       0.107       1.222
  YSB1171              JUNCTION      0.00    76.92     0  03:01           0       0.257       2.525
  YS02006553           JUNCTION      0.00   718.82     0  02:51           0        6.78       0.227
  YS02006561           JUNCTION      0.00  1142.25     0  02:52           0          10       0.007
  YS02006556           JUNCTION      0.00   719.23     0  02:51           0        6.78       0.166
  YS02006558           JUNCTION    587.14  1142.76     0  02:52        3.28          10       0.050
  YS02001783           JUNCTION      0.00  1142.15     0  02:52           0          10       0.023
  YS02001784           JUNCTION      1.06  1143.05     0  02:52      0.0299          10       0.035
  YS02001786           JUNCTION      0.06  1143.14     0  02:52     0.00159          10       0.034
  YS02001788           JUNCTION      0.07  1143.35     0  02:52       0.002          10       0.020
  YS02001790           JUNCTION      0.15  1156.79     0  02:51     0.00437          10       0.017
  YS02001791           JUNCTION      0.00  1261.31     0  02:51           0          10       0.003
  YS02001793           JUNCTION      0.00  1220.98     0  02:51           0          10      -0.009
  WSC                  OUTFALL       0.00  1338.77     0  03:06           0        18.9       0.000
  JK-storage           STORAGE       0.00  1130.01     0  02:49           0        10.2      -9.505
  CC-storage           STORAGE       0.00  1675.54     0  02:40           0        6.65       0.982
  XR-storage           STORAGE    1024.87  1024.87     0  03:01        12.7        13.3      -0.002
  
  
  **********************
  Node Surcharge Summary
  **********************
  
  Surcharging occurs when water rises above the top of the highest conduit.
  ---------------------------------------------------------------------
                                               Max. Height   Min. Depth
                                   Hours       Above Crown    Below Rim
  Node                 Type      Surcharged         Meters       Meters
  ---------------------------------------------------------------------
  WS02004401           JUNCTION        0.50          0.271        1.389
  WS02004402           JUNCTION        0.53          0.252        1.488
  WS02004403           JUNCTION        0.54          0.220        1.810
  WS02004404           JUNCTION        0.77          0.262        2.518
  WS02004406           JUNCTION        0.68          0.179        2.271
  WS02004413           JUNCTION        0.19          0.026        2.174
  WS02004405           JUNCTION        0.72          0.238        2.562
  WS02006109           JUNCTION        3.13          0.900        0.920
  WS02006110           JUNCTION        1.34          0.595        1.255
  WS02006111           JUNCTION        0.08          0.126        1.744
  WS02006112           JUNCTION        1.62          0.602        1.078
  WS02006113           JUNCTION        0.10          0.180        1.750
  WS02006115           JUNCTION        0.36          0.253        1.997
  WS02006116           JUNCTION        0.38          0.240        2.050
  WS02006230           JUNCTION        1.00          0.864        0.706
  WS02006231           JUNCTION        1.31          0.873        0.657
  WS02006232           JUNCTION        2.98          0.982        0.498
  WS02006234           JUNCTION        2.18          0.863        0.377
  WS02006235           JUNCTION        2.55          0.884        0.406
  WS02006238           JUNCTION        2.64          0.891        0.539
  WS02006240           JUNCTION        1.79          0.737        0.653
  WS02006242           JUNCTION        1.88          0.731        0.089
  WS02006243           JUNCTION        1.21          0.587        0.183
  WS02006245           JUNCTION        1.04          0.514        0.336
  WS02006247           JUNCTION        1.04          0.493        0.267
  WS02006248           JUNCTION        0.90          0.380        0.000
  WS02006249           JUNCTION        0.93          0.390        0.000
  WS02006239           JUNCTION        2.07          0.798        0.492
  WS02006251           JUNCTION        0.51          0.338        0.842
  WS02006252           JUNCTION        1.16          0.429        0.671
  WS02006253           JUNCTION        0.53          0.407        2.073
  WS02006256           JUNCTION        6.78          2.050        0.000
  WS02006228           JUNCTION        3.10          1.070        1.130
  YS02001748           JUNCTION        5.22          1.190        0.000
  YS02001751           JUNCTION        5.36          1.182        0.018
  YS02001754           JUNCTION        5.57          1.064        0.086
  YS02001762           JUNCTION        5.75          1.049        0.101
  YS02001765           JUNCTION        5.72          0.996        0.104
  YS02001767           JUNCTION        5.70          0.951        0.079
  YS02001770           JUNCTION        5.68          0.906        0.014
  YS02001774           JUNCTION        5.74          0.986        0.064
  YS02001779           JUNCTION        5.56          0.680        0.000
  YS02001882           JUNCTION        1.06          0.636        0.194
  YS02001884           JUNCTION        1.09          0.679        0.191
  YS02001759           JUNCTION        5.78          1.086        0.124
  YS02001887           JUNCTION        1.17          0.766        0.184
  YS02001890           JUNCTION        1.20          0.760        0.000
  YS02001898           JUNCTION        1.02          0.532        0.208
  YS02001901           JUNCTION        1.13          0.677        0.193
  YS02001904           JUNCTION        1.10          0.637        0.213
  YS02001907           JUNCTION        1.89          0.950        0.000
  YS02001910           JUNCTION        1.24          0.783        0.317
  YS02001915           JUNCTION        1.05          0.598        0.402
  YS02001918           JUNCTION        0.85          0.281        0.529
  YS02001619           JUNCTION        5.37          0.589        0.021
  YS02001629           JUNCTION        5.38          0.470        0.000
  YS02001641           JUNCTION        5.73          0.937        0.163
  YS02001644           JUNCTION        5.73          0.920        0.000
  YS02001652           JUNCTION        5.61          1.130        0.000
  YS02001655           JUNCTION        5.39          1.200        0.000
  YS02001920           JUNCTION        0.88          0.361        0.779
  YS02001658           JUNCTION        5.25          1.223        0.077
  YS02001661           JUNCTION        0.06          1.390        0.000
  YS02001622           JUNCTION        5.41          0.560        0.060
  YS02001633           JUNCTION        5.71          0.928        0.132
  YS02001649           JUNCTION        5.76          1.050        0.000
  YS02001757           JUNCTION        5.86          1.172        0.038
  YS02001895           JUNCTION        1.03          0.566        0.184
  YS02001625           JUNCTION        5.64          0.780        0.000
  YS02163301           JUNCTION        5.69          0.899        0.131
  YS02163601           JUNCTION        5.75          0.989        0.091
  YS02164001           JUNCTION        5.72          0.921        0.179
  YS02001647           JUNCTION        5.62          0.801        0.099
  YS02006553           JUNCTION        1.99          1.126        0.064
  YS02006561           JUNCTION        0.86          0.849        0.301
  YS02006556           JUNCTION        1.47          1.258        0.092
  YS02006558           JUNCTION        1.43          1.309        0.091
  YS02001783           JUNCTION        1.19          1.379        0.221
  YS02001784           JUNCTION        1.14          1.393        0.097
  YS02001786           JUNCTION        0.98          1.430        0.000
  YS02001788           JUNCTION        0.85          1.422        0.058
  YS02001790           JUNCTION        1.96          1.157        0.000
  YS02001791           JUNCTION        2.07          0.863        1.057
  YS02001793           JUNCTION        2.37          0.937        1.663
  
  
  *********************
  Node Flooding Summary
  *********************
  
  Flooding refers to all water that overflows a node, whether it ponds or not.
  --------------------------------------------------------------------------
                                                             Total   Maximum
                                 Maximum   Time of Max       Flood    Ponded
                        Hours       Rate    Occurrence      Volume     Depth
  Node                 Flooded       LPS   days hr:min    10^6 ltr    Meters
  --------------------------------------------------------------------------
  WS02006248              0.07     51.58      0  03:02       0.007     0.000
  WS02006249              0.48    373.68      0  03:02       0.266     0.000
  WS02006256              3.93    810.29      0  03:10       6.446     0.000
  YS02001748              0.01    192.66      0  02:32       0.000     0.000
  YS02001779              3.00    650.16      0  03:01       2.758     0.000
  YS02001890              0.34    163.57      0  03:01       0.085     0.000
  YS02001907              0.72    728.72      0  03:01       0.982     0.000
  YS02001629              0.01     16.34      0  02:32       0.000     0.000
  YS02001644              4.89   1493.15      0  03:01       9.709     0.000
  YS02001652              0.01     23.73      0  02:25       0.000     0.000
  YS02001655              0.01    300.91      0  02:25       0.000     0.000
  YS02001661              0.01    129.30      0  02:46       0.000     0.000
  YS02001649              0.01     28.67      0  02:46       0.000     0.000
  YS02001625              1.39    408.02      0  03:01       0.855     0.000
  YS02001786              0.01     50.70      0  02:53       0.000     0.000
  YS02001790              0.01    144.55      0  02:52       0.000     0.000
  JK-storage              1.08    971.29      0  03:00       1.316     0.000
  XR-storage              3.49    644.86      0  03:01       2.672     0.000
  
  
  **********************
  Storage Volume Summary
  **********************
  
  --------------------------------------------------------------------------------------------------
                         Average     Avg  Evap Exfil       Maximum     Max    Time of Max    Maximum
                          Volume    Pcnt  Pcnt  Pcnt        Volume    Pcnt     Occurrence    Outflow
  Storage Unit           1000 m3    Full  Loss  Loss       1000 m3    Full    days hr:min        LPS
  --------------------------------------------------------------------------------------------------
  JK-storage               0.131      45     0     0         0.291     100       0  02:07     983.00
  CC-storage               3.238      21     0     0         3.990      25       0  03:23     399.91
  XR-storage               0.803      87     0     0         0.926     100       0  02:57     380.00
  
  
  ***********************
  Outfall Loading Summary
  ***********************
  
  ---------------------------------------------------------------------------------------------------------------------------------
                         Flow       Avg       Max       Total         Total         Total         Total         Total         Total
                         Freq      Flow      Flow      Volume           COD            SS            TN            TP         NH4-N
  Outfall Node           Pcnt       LPS       LPS    10^6 ltr            kg            kg            kg            kg            kg
  ---------------------------------------------------------------------------------------------------------------------------------
  WSC                  100.00    753.20   1338.77      18.901      2306.364      3986.789       146.771        17.263        88.777
  ---------------------------------------------------------------------------------------------------------------------------------
  System               100.00    753.20   1338.77      18.901      2306.364      3986.789       146.771        17.263        88.777
  
  
  ********************
  Link Flow Summary
  ********************
  
  -----------------------------------------------------------------------------
                                 Maximum  Time of Max   Maximum    Max/    Max/
                                  |Flow|   Occurrence   |Veloc|    Full    Full
  Link                 Type          LPS  days hr:min     m/sec    Flow   Depth
  -----------------------------------------------------------------------------
  WS02003066WSF200     CONDUIT    948.66     0  03:04      3.01    0.16    0.32
  WS02006287WS02006284 CONDUIT    678.98     0  03:02      2.38    0.31    0.39
  WS02006284WS02006280 CONDUIT    680.21     0  03:02      2.62    0.28    0.37
  WS02006280WS02006229 CONDUIT    681.58     0  03:02      3.83    0.15    0.54
  WS02006229WS02006228 CONDUIT    928.55     0  03:02      1.85    3.08    1.00
  WS02006256WS02006235 CONDUIT    264.10     0  00:12      3.74    2.80    1.00
  WS02006253WS02006251 CONDUIT    144.56     0  03:01      0.54    0.43    1.00
  WS02006252WS02006251 CONDUIT    403.79     0  05:10      3.21    1.48    1.00
  WS02006251WS02006249 CONDUIT    537.80     0  03:00      1.40    1.55    1.00
  WS02006249WS02006248 CONDUIT    375.88     0  06:01      1.18    2.06    1.00
  WS02006248WS02006247 CONDUIT    370.60     0  06:01      1.15    0.81    1.00
  WS02006247WS02006245 CONDUIT    366.27     0  06:01      1.13    2.90    1.00
  WS02006245WS02006243 CONDUIT    360.63     0  06:01      1.16    1.07    1.00
  WS02006243WS02006242 CONDUIT    352.67     0  06:02      1.05    0.75    1.00
  WS02006242WS02006240 CONDUIT    344.80     0  06:02      0.99    1.37    1.00
  WS02006240WS02006239 CONDUIT    337.60     0  06:03      1.03    1.06    1.00
  WS02006239WS02006238 CONDUIT    335.16     0  06:03      0.94    1.07    1.00
  WS02006238WS02006235 CONDUIT    334.37     0  06:03      1.05    0.75    1.00
  WS02006235WS02006234 CONDUIT    522.91     0  07:10      1.36    5.52    1.00
  WS02006234WS02006232 CONDUIT    523.31     0  07:11      1.36    1.06    1.00
  WS02006232WS02006231 CONDUIT    522.86     0  07:11      1.36    1.10    1.00
  WS02006231WS02006230 CONDUIT    522.84     0  07:11      1.36    7.93    1.00
  WS02006230WS02006229 CONDUIT    532.85     0  07:11      1.38   11.86    1.00
  WS02006228WS02006109 CONDUIT    928.54     0  03:02      1.85    4.06    1.00
  WS02006116WS02004401 CONDUIT    955.63     0  03:02      1.22    1.32    1.00
  WS02006115WS02006116 CONDUIT    955.71     0  03:02      1.22    1.23    1.00
  WS02006113WS02006111 CONDUIT    930.25     0  03:02      2.61    1.12    1.00
  WS02006112WS02006115 CONDUIT    954.83     0  03:02      1.22    0.56    1.00
  WS02006111WS02006112 CONDUIT    930.58     0  03:02      1.85    0.44    1.00
  WS02006110WS02006113 CONDUIT    930.28     0  03:02      1.85    0.85    1.00
  WS02006109WS02006110 CONDUIT    930.08     0  03:02      1.85    1.79    1.00
  WS02004411WS02004412 CONDUIT    945.16     0  03:03      1.25    1.34    0.92
  WS02004401WS02004402 CONDUIT    955.98     0  03:02      1.22    1.15    1.00
  WS02004413WS02003067 CONDUIT    945.97     0  03:04      1.56    0.41    0.72
  WS02004412WS02004413 CONDUIT    945.91     0  03:04      1.22    0.63    0.96
  WS02004410WS02004411 CONDUIT    943.89     0  03:03      1.23    1.29    0.95
  WS02004409WS02004410 CONDUIT    948.76     0  03:02      1.23    1.23    0.96
  WS02004407WS02004409 CONDUIT    954.68     0  03:02      1.69    0.34    0.68
  WS02004406WS02004407 CONDUIT    957.43     0  03:02      1.63    0.43    0.70
  WS02004405WS02004406 CONDUIT    956.99     0  03:02      1.22    1.89    1.00
  WS02004404WS02004405 CONDUIT    956.59     0  03:02      1.22    9.37    1.00
  WS02004403WS02004404 CONDUIT    956.27     0  03:02      1.22    0.69    1.00
  WS02004402WS02004403 CONDUIT    956.54     0  03:02      1.22    1.37    1.00
  WS02004139WS02001211 CONDUIT    383.54     0  03:21      0.90    0.48    0.64
  WS02004138WS02004139 CONDUIT    394.13     0  00:00      3.62    0.08    0.47
  WS02003067WS02003066 CONDUIT    947.86     0  03:03      1.66    0.30    0.51
  WS02001213WS02003059 CONDUIT    401.56     0  03:21      0.89    0.66    0.87
  WS02001212WS02001213 CONDUIT    397.49     0  03:21      1.32    0.61    0.56
  WS02001211WS02001212 CONDUIT    394.39     0  03:21      0.78    0.30    0.71
  WS02003072WS02003073 CONDUIT   1336.78     0  03:05      1.96    2.89    0.58
  WS02003069WS02003072 CONDUIT   1335.88     0  03:05      1.82    0.64    0.62
  WS02003060WS02003069 CONDUIT   1336.05     0  03:04      2.03    0.52    0.56
  WS02003059WS02003060 CONDUIT    407.15     0  03:20      0.95    0.27    0.77
  HS02004901HS02004770 CONDUIT     37.24     0  03:01      0.10    0.14    0.53
  HS02004876HS02004881 CONDUIT    127.65     0  03:01      1.21    1.36    0.15
  HS02004870HS02004876 CONDUIT    103.11     0  03:01      0.82    0.07    0.18
  HS02004842HS02004848 CONDUIT     16.84     0  03:01      0.07    0.01    0.33
  HS02004837HS02004842 CONDUIT     17.91     0  03:03      0.42    0.01    0.35
  HS02004830HS02004837 CONDUIT     64.65     0  03:01      0.67    0.06    0.14
  HS02004824HS02004830 CONDUIT     64.13     0  03:02      0.62    0.08    0.16
  HS02004817HS02004824 CONDUIT    123.87     0  03:01      0.31    0.06    0.58
  HS02004770HS02004777 CONDUIT    185.00     0  03:01      0.49    0.34    0.54
  HS02004799HS02004480 CONDUIT    444.41     0  03:01      1.07    0.56    0.60
  HS02004792HS02004799 CONDUIT    408.49     0  03:01      1.20    0.25    0.49
  HS02004788HS02004792 CONDUIT    232.96     0  03:02      1.28    0.15    0.26
  HS02004785HS02004788 CONDUIT    181.80     0  03:02      0.91    1.37    0.29
  HS02004777HS02004785 CONDUIT    182.09     0  03:01      0.57    0.22    0.45
  HS02004480HS02004478 CONDUIT    517.41     0  03:01      1.55    2.18    0.48
  HS02004479HS02004480 CONDUIT     77.33     0  03:02      0.30    0.07    0.57
  HS02004862HS02004870 CONDUIT     79.03     0  03:01      0.80    0.09    0.14
  HS02004848HS02004852 CONDUIT     37.85     0  03:01      0.53    0.04    0.10
  HS02004856HS02004862 CONDUIT     54.77     0  03:01      0.59    0.05    0.13
  HS02004852HS02004856 CONDUIT     37.76     0  03:02      0.34    0.04    0.16
  HS02004802HS02004478 CONDUIT    170.18     0  03:04      0.54    0.15    0.48
  HS02004478WS02006287 CONDUIT    677.73     0  03:02      2.11    0.19    0.36
  HS02004817HS02004807 CONDUIT    128.13     0  03:04      0.25    0.08    0.75
  HS02004807HS02004802 CONDUIT    165.32     0  03:04      0.46    0.32    0.53
  YS02001759YS02001757 CONDUIT    622.61     0  02:43      0.79    0.44    1.00
  YS02001762YS02001759 CONDUIT    316.37     0  02:43      0.40    0.36    1.00
  YS02001765YS02001762 CONDUIT    315.68     0  02:43      0.40    0.30    1.00
  YS02001770YS02001767 CONDUIT    315.55     0  02:43      0.40    1.25    1.00
  YS02001774YS02001770 CONDUIT    650.68     0  03:01      0.83    0.42    1.00
  YS02001779YS02001774 CONDUIT    650.19     0  03:01      0.83    0.33    1.00
  YS02001649YS02001757 CONDUIT    871.93     0  02:40      1.11    0.53    1.00
  YS02001767YS02001765 CONDUIT    316.05     0  02:43      0.40    0.40    1.00
  YS02006561YS02001783 CONDUIT   1142.15     0  02:52      2.27    0.59    1.00
  YS02001783YS02001784 CONDUIT   1141.99     0  02:52      2.27    1.57    1.00
  YS02001784YS02001785 CONDUIT   1143.08     0  02:52      2.27    2.66    1.00
  YS02001788YS02001790 CONDUIT   1156.63     0  02:51      2.70    0.85    1.00
  YS02001790YS02001791 CONDUIT   1261.31     0  02:51      3.41    1.37    1.00
  YS02001791YS02001793 CONDUIT   1220.98     0  02:51      6.58    0.52    1.00
  YS02001910YS02001907 CONDUIT    594.51     0  03:01      0.76    0.34    1.00
  YS02001786YS02001788 CONDUIT   1143.28     0  02:52      2.45    2.20    1.00
  YS02001915YS02001910 CONDUIT    594.68     0  03:01      0.76    0.30    1.00
  YS02001918YS02001915 CONDUIT    259.05     0  02:52      0.44    0.14    1.00
  YS02001923YS02001920 CONDUIT    255.77     0  02:52      0.75    0.11    1.00
  YS02001926YS02001923 CONDUIT    229.08     0  02:52      0.86    0.33    0.93
  YS02001929YS02001926 CONDUIT    200.00     0  03:01      0.92    0.09    0.82
  YS02001920YS02001918 CONDUIT    258.39     0  02:52      0.72    0.25    1.00
  YS02001629YS02163301 CONDUIT    200.70     0  02:33      0.26    0.25    1.00
  YS02001619YS02001622 CONDUIT    381.54     0  03:01      0.59    0.56    1.00
  YS02001622YS02001625 CONDUIT    381.50     0  03:01      0.49    0.20    1.00
  YS02001625YS02001629 CONDUIT    196.45     0  02:39      0.25    0.09    1.00
  YS02163301YS02001633 CONDUIT    204.38     0  02:33      0.26    0.19    1.00
  YS02163601YS02164001 CONDUIT    413.19     0  02:39      0.53    0.37    1.00
  YS02164001YS02001641 CONDUIT    413.92     0  02:39      0.53    0.57    1.00
  YS02001641YS02001644 CONDUIT    414.86     0  02:39      0.53    1.34    1.00
  YS02001647YS02001649 CONDUIT    717.23     0  03:24      0.91    0.38    1.00
  YS02006553YS02006556 CONDUIT    719.23     0  02:51      0.92    0.62    1.00
  YS02006556YS02006558 CONDUIT    718.88     0  02:51      0.92    0.57    1.00
  YSB6556YSB1171       CONDUIT     42.85     0  03:02      0.13    0.04    0.82
  YS02001907YS02006553 CONDUIT    718.82     0  02:51      0.80    0.85    1.00
  YS02006558YS02006561 CONDUIT   1142.25     0  02:52      4.04    2.52    1.00
  YS02001633YS02163601 CONDUIT    413.11     0  02:39      0.53    0.43    1.00
  YS02001644YS02001647 CONDUIT    717.24     0  03:24      0.91    0.42    1.00
  YS02001745YS02001748 CONDUIT    595.87     0  02:32      1.45    0.23    0.97
  YS02001748YS02001751 CONDUIT    443.49     0  03:01      1.03    0.22    1.00
  YS02001751YS02001754 CONDUIT    443.89     0  03:01      0.88    0.21    1.00
  YS02001754YS02001757 CONDUIT    443.93     0  03:01      0.57    0.18    1.00
  YS02001882YS02001884 CONDUIT     12.04     0  02:43      0.12    0.01    1.00
  YS02001884YS02001887 CONDUIT     20.13     0  02:35      0.08    0.03    1.00
  YS02001890YS02001895 CONDUIT    517.94     0  03:00      0.66    0.24    1.00
  YS02001895YS02001898 CONDUIT    518.26     0  03:01      0.66    0.90    1.00
  YS02001898YS02001901 CONDUIT    517.91     0  02:57      0.66    0.33    1.00
  YS02001901YS02001904 CONDUIT    518.19     0  03:04      0.66    0.80    1.00
  YS02001904YS02001907 CONDUIT    518.70     0  03:01      0.66    0.18    1.00
  YS02001887YS02001890 CONDUIT    680.35     0  03:01      0.87    1.16    1.00
  YS02001652YS02001649 CONDUIT    504.92     0  03:01      0.64    0.25    1.00
  YS02001655YS02001652 CONDUIT    504.35     0  03:01      0.94    0.24    1.00
  YS02001658YS02001655 CONDUIT    503.43     0  03:01      1.18    0.21    1.00
  YS02001661YS02001658 CONDUIT    610.57     0  02:29      1.52    0.24    1.00
  YS02001664YS02001661 CONDUIT    670.17     0  02:42      1.43    0.21    0.77
  YSB1154YSB6556       CONDUIT     43.28     0  03:01      0.18    0.08    0.73
  YSB1174YSB1171       CONDUIT     36.64     0  03:01      0.11    0.06    0.85
  YSB1171HS02004479    CONDUIT     75.47     0  03:02      0.54    0.05    0.68
  HS02004881HS02006253 CONDUIT    140.48     0  03:01      2.13    0.03    0.54
  YS02001793JiankangQianchi CONDUIT   1130.01     0  02:49     19.39    0.09    1.00
  YS02001757CaochengTiaoxuchi CONDUIT   1675.54     0  02:40      2.17    0.74    1.00
  WSF200WS02003060     CONDUIT    950.16     0  03:04      1.94    0.21    0.45
  1                    CONDUIT   1338.77     0  03:06      3.59    0.47    0.48
  CC-Pump-1            PUMP       200.00     0  03:00              1.00
  CC-Pump-2            PUMP       199.96     0  03:00              1.00
  JK-Pump-1            PUMP       300.00     0  02:20              1.00
  JK-Pump-2            PUMP       683.00     0  02:20              1.00
  XR-Pump-1            PUMP        95.00     0  00:00              1.00
  XR-Pump-2            PUMP        95.00     0  00:00              1.00
  XR-Pump-3            PUMP        95.00     0  00:00              1.00
  XR-Pump-4            PUMP        95.00     0  00:00              1.00
  
  
  ***************************
  Flow Classification Summary
  ***************************
  
  -------------------------------------------------------------------------------------
                      Adjusted    ---------- Fraction of Time in Flow Class ---------- 
                       /Actual         Up    Down  Sub   Sup   Up    Down  Norm  Inlet 
  Conduit               Length    Dry  Dry   Dry   Crit  Crit  Crit  Crit  Ltd   Ctrl  
  -------------------------------------------------------------------------------------
  WS02003066WSF200        1.00   0.01  0.04  0.00  0.00  0.95  0.00  0.00  0.58  0.00
  WS02006287WS02006284    1.00   0.03  0.01  0.00  0.63  0.32  0.00  0.00  0.65  0.00
  WS02006284WS02006280    1.00   0.04  0.00  0.00  0.00  0.00  0.00  0.96  0.00  0.00
  WS02006280WS02006229    1.00   0.04  0.00  0.00  0.01  0.03  0.00  0.93  0.01  0.00
  WS02006229WS02006228    1.00   0.00  0.00  0.00  1.00  0.00  0.00  0.00  0.00  0.00
  WS02006256WS02006235    1.00   0.01  0.00  0.00  0.99  0.00  0.00  0.00  0.00  0.00
  WS02006253WS02006251    1.00   0.02  0.02  0.00  0.96  0.00  0.01  0.00  0.00  0.00
  WS02006252WS02006251    1.00   0.18  0.00  0.00  0.06  0.00  0.76  0.00  0.00  0.00
  WS02006251WS02006249    1.00   0.00  0.00  0.00  1.00  0.00  0.00  0.00  0.31  0.00
  WS02006249WS02006248    1.00   0.00  0.00  0.00  0.86  0.00  0.13  0.00  0.00  0.00
  WS02006248WS02006247    1.00   0.00  0.00  0.00  0.99  0.00  0.00  0.01  0.20  0.00
  WS02006247WS02006245    1.00   0.01  0.00  0.00  0.98  0.00  0.00  0.01  0.00  0.00
  WS02006245WS02006243    1.00   0.01  0.00  0.00  0.93  0.00  0.00  0.06  0.01  0.00
  WS02006243WS02006242    1.00   0.01  0.00  0.00  0.99  0.00  0.00  0.00  0.29  0.00
  WS02006242WS02006240    1.00   0.01  0.00  0.00  0.99  0.00  0.00  0.00  0.00  0.00
  WS02006240WS02006239    1.00   0.01  0.00  0.00  0.94  0.00  0.00  0.05  0.01  0.00
  WS02006239WS02006238    1.00   0.01  0.00  0.00  0.99  0.00  0.00  0.00  0.12  0.00
  WS02006238WS02006235    1.00   0.01  0.00  0.00  0.99  0.00  0.00  0.00  0.00  0.00
  WS02006235WS02006234    1.00   0.01  0.00  0.00  0.95  0.00  0.04  0.00  0.00  0.00
  WS02006234WS02006232    1.00   0.01  0.00  0.00  0.99  0.00  0.00  0.00  0.08  0.00
  WS02006232WS02006231    1.00   0.01  0.00  0.00  0.99  0.00  0.00  0.00  0.00  0.00
  WS02006231WS02006230    1.00   0.01  0.00  0.00  0.67  0.00  0.32  0.00  0.00  0.00
  WS02006230WS02006229    1.00   0.00  0.00  0.00  0.99  0.00  0.00  0.01  0.00  0.00
  WS02006228WS02006109    1.00   0.00  0.00  0.00  1.00  0.00  0.00  0.00  0.00  0.00
  WS02006116WS02004401    1.00   0.01  0.00  0.00  0.99  0.00  0.00  0.00  0.00  0.00
  WS02006115WS02006116    1.00   0.01  0.00  0.00  0.98  0.00  0.00  0.00  0.00  0.00
  WS02006113WS02006111    1.00   0.01  0.00  0.00  0.04  0.95  0.00  0.00  0.16  0.00
  WS02006112WS02006115    1.00   0.01  0.00  0.00  0.99  0.00  0.00  0.00  0.00  0.00
  WS02006111WS02006112    1.00   0.01  0.00  0.00  0.99  0.00  0.00  0.00  0.87  0.00
  WS02006110WS02006113    1.00   0.00  0.01  0.00  0.99  0.00  0.00  0.00  0.00  0.00
  WS02006109WS02006110    1.00   0.00  0.00  0.00  0.99  0.00  0.00  0.00  0.00  0.00
  WS02004411WS02004412    1.00   0.03  0.00  0.00  0.97  0.00  0.00  0.00  0.00  0.00
  WS02004401WS02004402    1.00   0.01  0.00  0.00  0.99  0.00  0.00  0.00  0.00  0.00
  WS02004413WS02003067    1.00   0.03  0.02  0.00  0.00  0.00  0.96  0.00  0.00  0.00
  WS02004412WS02004413    1.00   0.03  0.00  0.00  0.97  0.00  0.00  0.00  0.02  0.00
  WS02004410WS02004411    1.00   0.02  0.00  0.00  0.98  0.00  0.00  0.00  0.03  0.00
  WS02004409WS02004410    1.00   0.02  0.00  0.00  0.98  0.00  0.00  0.00  0.04  0.00
  WS02004407WS02004409    1.00   0.02  0.00  0.00  0.97  0.00  0.00  0.00  0.91  0.00
  WS02004406WS02004407    1.00   0.00  0.02  0.00  0.98  0.00  0.00  0.00  0.00  0.00
  WS02004405WS02004406    1.00   0.00  0.00  0.00  1.00  0.00  0.00  0.00  0.02  0.00
  WS02004404WS02004405    1.00   0.00  0.00  0.00  1.00  0.00  0.00  0.00  0.00  0.00
  WS02004403WS02004404    1.00   0.00  0.01  0.00  0.99  0.00  0.00  0.00  0.00  0.00
  WS02004402WS02004403    1.00   0.01  0.00  0.00  0.99  0.00  0.00  0.00  0.00  0.00
  WS02004139WS02001211    1.00   0.00  0.00  0.00  1.00  0.00  0.00  0.00  0.00  0.00
  WS02004138WS02004139    1.00   0.00  0.00  0.00  1.00  0.00  0.00  0.00  1.00  0.00
  WS02003067WS02003066    1.00   0.04  0.01  0.00  0.95  0.00  0.00  0.00  0.00  0.00
  WS02001213WS02003059    1.00   0.00  0.00  0.00  1.00  0.00  0.00  0.00  0.00  0.00
  WS02001212WS02001213    1.00   0.00  0.00  0.00  0.91  0.00  0.09  0.00  0.00  0.00
  WS02001211WS02001212    1.00   0.00  0.00  0.00  1.00  0.00  0.00  0.00  0.00  0.00
  WS02003072WS02003073    1.00   0.00  0.00  0.00  0.00  0.00  0.00  1.00  0.00  0.00
  WS02003069WS02003072    1.00   0.00  0.00  0.00  1.00  0.00  0.00  0.00  0.13  0.00
  WS02003060WS02003069    1.00   0.00  0.00  0.00  0.99  0.01  0.00  0.00  0.08  0.00
  WS02003059WS02003060    1.00   0.00  0.00  0.00  1.00  0.00  0.00  0.00  0.00  0.00
  HS02004901HS02004770    1.00   0.04  0.00  0.00  0.96  0.00  0.00  0.00  0.00  0.00
  HS02004876HS02004881    1.00   0.00  0.00  0.00  0.91  0.08  0.00  0.00  0.00  0.00
  HS02004870HS02004876    1.00   0.00  0.00  0.00  1.00  0.00  0.00  0.00  0.95  0.00
  HS02004842HS02004848    1.00   0.00  0.04  0.00  0.96  0.00  0.00  0.00  0.54  0.00
  HS02004837HS02004842    1.00   0.00  0.00  0.00  1.00  0.00  0.00  0.00  0.11  0.00
  HS02004830HS02004837    1.00   0.00  0.00  0.00  1.00  0.00  0.00  0.00  0.99  0.00
  HS02004824HS02004830    1.00   0.00  0.00  0.00  1.00  0.00  0.00  0.00  0.01  0.00
  HS02004817HS02004824    1.00   0.00  0.00  0.00  1.00  0.00  0.00  0.00  0.97  0.00
  HS02004770HS02004777    1.00   0.00  0.04  0.00  0.96  0.00  0.00  0.00  0.03  0.00
  HS02004799HS02004480    1.00   0.00  0.01  0.00  0.96  0.00  0.03  0.00  0.00  0.00
  HS02004792HS02004799    1.00   0.00  0.00  0.00  1.00  0.00  0.00  0.00  0.98  0.00
  HS02004788HS02004792    1.00   0.00  0.00  0.00  1.00  0.00  0.00  0.00  0.98  0.00
  HS02004785HS02004788    1.00   0.00  0.00  0.00  1.00  0.00  0.00  0.00  0.00  0.00
  HS02004777HS02004785    1.00   0.00  0.00  0.00  1.00  0.00  0.00  0.00  0.12  0.00
  HS02004480HS02004478    1.00   0.04  0.00  0.00  0.71  0.00  0.00  0.26  0.00  0.00
  HS02004479HS02004480    1.00   0.01  0.00  0.00  0.99  0.00  0.00  0.00  0.12  0.00
  HS02004862HS02004870    1.00   0.00  0.00  0.00  1.00  0.00  0.00  0.00  0.04  0.00
  HS02004848HS02004852    1.00   0.04  0.00  0.00  0.96  0.00  0.00  0.00  0.64  0.00
  HS02004856HS02004862    1.00   0.00  0.05  0.00  0.95  0.00  0.00  0.00  0.83  0.00
  HS02004852HS02004856    1.00   0.04  0.00  0.00  0.96  0.00  0.00  0.00  0.81  0.00
  HS02004802HS02004478    1.00   0.04  0.00  0.00  0.96  0.00  0.00  0.00  0.02  0.00
  HS02004478WS02006287    1.00   0.04  0.00  0.00  0.77  0.18  0.00  0.00  0.65  0.00
  HS02004817HS02004807    1.00   0.00  0.04  0.00  0.96  0.00  0.00  0.00  0.01  0.00
  HS02004807HS02004802    1.00   0.04  0.00  0.00  0.96  0.00  0.00  0.00  0.00  0.00
  YS02001759YS02001757    1.00   0.00  0.00  0.00  1.00  0.00  0.00  0.00  0.16  0.00
  YS02001762YS02001759    1.00   0.00  0.00  0.00  1.00  0.00  0.00  0.00  0.03  0.00
  YS02001765YS02001762    1.00   0.00  0.00  0.00  1.00  0.00  0.00  0.00  0.14  0.00
  YS02001770YS02001767    1.00   0.00  0.00  0.00  1.00  0.00  0.00  0.00  0.00  0.00
  YS02001774YS02001770    1.00   0.00  0.04  0.00  0.96  0.00  0.00  0.00  0.03  0.00
  YS02001779YS02001774    1.00   0.00  0.00  0.00  1.00  0.00  0.00  0.00  0.19  0.00
  YS02001649YS02001757    1.00   0.00  0.00  0.00  1.00  0.00  0.00  0.00  0.16  0.00
  YS02001767YS02001765    1.00   0.00  0.00  0.00  1.00  0.00  0.00  0.00  0.00  0.00
  YS02006561YS02001783    1.00   0.05  0.00  0.00  0.36  0.59  0.00  0.00  0.49  0.00
  YS02001783YS02001784    1.00   0.00  0.05  0.00  0.95  0.00  0.00  0.00  0.00  0.00
  YS02001784YS02001785    1.00   0.00  0.00  0.00  1.00  0.00  0.00  0.00  0.18  0.00
  YS02001788YS02001790    1.00   0.00  0.00  0.00  0.37  0.63  0.00  0.00  0.35  0.00
  YS02001790YS02001791    1.00   0.00  0.00  0.00  0.33  0.67  0.00  0.00  0.42  0.00
  YS02001791YS02001793    1.00   0.00  0.00  0.00  0.36  0.64  0.00  0.00  0.03  0.00
  YS02001910YS02001907    1.00   0.00  0.00  0.00  0.99  0.00  0.00  0.01  0.12  0.00
  YS02001786YS02001788    1.00   0.00  0.00  0.00  0.37  0.63  0.00  0.00  0.00  0.00
  YS02001915YS02001910    1.00   0.00  0.00  0.00  0.99  0.01  0.00  0.00  0.16  0.00
  YS02001918YS02001915    1.00   0.00  0.00  0.00  0.99  0.00  0.00  0.00  0.53  0.00
  YS02001923YS02001920    1.00   0.00  0.00  0.00  1.00  0.00  0.00  0.00  0.82  0.00
  YS02001926YS02001923    1.00   0.00  0.02  0.00  0.15  0.00  0.83  0.00  0.00  0.00
  YS02001929YS02001926    1.00   0.00  0.04  0.00  0.96  0.00  0.00  0.00  0.75  0.00
  YS02001920YS02001918    1.00   0.00  0.00  0.00  1.00  0.00  0.00  0.00  0.00  0.00
  YS02001629YS02163301    1.00   0.04  0.00  0.00  0.96  0.00  0.00  0.00  0.00  0.00
  YS02001619YS02001622    1.00   0.04  0.00  0.00  0.96  0.00  0.00  0.00  0.00  0.00
  YS02001622YS02001625    1.00   0.04  0.00  0.00  0.96  0.00  0.00  0.00  0.05  0.00
  YS02001625YS02001629    1.00   0.04  0.02  0.00  0.93  0.00  0.02  0.00  0.00  0.00
  YS02163301YS02001633    1.00   0.00  0.04  0.00  0.96  0.00  0.00  0.00  0.00  0.00
  YS02163601YS02164001    1.00   0.00  0.02  0.00  0.98  0.00  0.00  0.00  0.00  0.00
  YS02164001YS02001641    1.00   0.00  0.02  0.00  0.98  0.00  0.00  0.00  0.06  0.00
  YS02001641YS02001644    1.00   0.00  0.00  0.00  1.00  0.00  0.00  0.00  0.00  0.00
  YS02001647YS02001649    1.00   0.00  0.05  0.00  0.95  0.00  0.00  0.00  0.01  0.00
  YS02006553YS02006556    1.00   0.00  0.00  0.00  1.00  0.00  0.00  0.00  0.03  0.00
  YS02006556YS02006558    1.00   0.00  0.00  0.00  1.00  0.00  0.00  0.00  0.00  0.00
  YSB6556YSB1171          1.00   0.01  0.02  0.00  0.97  0.00  0.00  0.00  0.00  0.00
  YS02001907YS02006553    1.00   0.00  0.01  0.00  0.99  0.00  0.00  0.00  0.00  0.00
  YS02006558YS02006561    1.00   0.05  0.00  0.00  0.13  0.81  0.00  0.00  0.47  0.00
  YS02001633YS02163601    1.00   0.00  0.00  0.00  1.00  0.00  0.00  0.00  0.15  0.00
  YS02001644YS02001647    1.00   0.00  0.05  0.00  0.95  0.00  0.00  0.00  0.00  0.00
  YS02001745YS02001748    1.00   0.00  0.00  0.00  0.91  0.00  0.00  0.09  0.04  0.00
  YS02001748YS02001751    1.00   0.00  0.00  0.00  0.97  0.03  0.00  0.00  0.15  0.00
  YS02001751YS02001754    1.00   0.00  0.00  0.00  0.94  0.00  0.00  0.06  0.02  0.00
  YS02001754YS02001757    1.00   0.00  0.00  0.00  1.00  0.00  0.00  0.00  0.18  0.00
  YS02001882YS02001884    1.00   0.04  0.00  0.00  0.96  0.00  0.00  0.00  0.00  0.00
  YS02001884YS02001887    1.00   0.02  0.01  0.00  0.97  0.00  0.00  0.00  0.00  0.00
  YS02001890YS02001895    1.00   0.00  0.04  0.00  0.96  0.00  0.00  0.00  0.00  0.00
  YS02001895YS02001898    1.00   0.04  0.00  0.00  0.94  0.00  0.01  0.00  0.00  0.00
  YS02001898YS02001901    1.00   0.04  0.00  0.00  0.96  0.00  0.00  0.00  0.01  0.00
  YS02001901YS02001904    1.00   0.04  0.00  0.00  0.96  0.00  0.00  0.00  0.00  0.00
  YS02001904YS02001907    1.00   0.00  0.04  0.00  0.96  0.00  0.00  0.00  0.00  0.00
  YS02001887YS02001890    1.00   0.00  0.00  0.00  0.99  0.00  0.01  0.00  0.00  0.00
  YS02001652YS02001649    1.00   0.00  0.00  0.00  1.00  0.00  0.00  0.00  0.17  0.00
  YS02001655YS02001652    1.00   0.00  0.00  0.00  0.94  0.00  0.00  0.06  0.02  0.00
  YS02001658YS02001655    1.00   0.00  0.04  0.00  0.93  0.03  0.00  0.00  0.10  0.00
  YS02001661YS02001658    1.00   0.04  0.00  0.00  0.91  0.06  0.00  0.00  0.11  0.00
  YS02001664YS02001661    1.00   0.04  0.00  0.00  0.92  0.04  0.00  0.00  0.20  0.00
  YSB1154YSB6556          1.00   0.03  0.00  0.00  0.97  0.00  0.00  0.00  0.02  0.00
  YSB1174YSB1171          1.00   0.02  0.01  0.00  0.97  0.00  0.00  0.00  0.00  0.00
  YSB1171HS02004479       1.00   0.01  0.00  0.00  0.98  0.00  0.00  0.00  0.10  0.00
  HS02004881HS02006253    1.00   0.02  0.00  0.00  0.59  0.03  0.00  0.36  0.42  0.00
  YS02001793JiankangQianchi    1.00   0.00  0.00  0.00  0.63  0.37  0.00  0.00  0.40  0.00
  YS02001757CaochengTiaoxuchi    1.00   0.00  0.07  0.00  0.93  0.00  0.00  0.00  0.00  0.00
  WSF200WS02003060        1.00   0.00  0.01  0.00  0.99  0.00  0.00  0.00  0.50  0.00
  1                       1.00   0.00  0.00  0.00  0.00  1.00  0.00  0.00  0.47  0.00
  
  
  *************************
  Conduit Surcharge Summary
  *************************
  
  ----------------------------------------------------------------------------
                                                           Hours        Hours 
                         --------- Hours Full --------   Above Full   Capacity
  Conduit                Both Ends  Upstream  Dnstream   Normal Flow   Limited
  ----------------------------------------------------------------------------
  WS02006229WS02006228        3.10      3.16      3.10      3.98         3.10
  WS02006256WS02006235        5.29      5.30      6.77      4.25         0.01
  WS02006253WS02006251        0.86      0.86      0.89      0.01         0.01
  WS02006252WS02006251        0.66      0.66      1.16      0.85         0.01
  WS02006251WS02006249        0.87      0.87      0.93      0.40         0.29
  WS02006249WS02006248        0.90      0.90      0.93      2.28         0.01
  WS02006248WS02006247        0.93      0.93      1.04      0.01         0.01
  WS02006247WS02006245        1.04      1.07      1.04      2.93         0.95
  WS02006245WS02006243        1.07      1.07      1.21      0.06         0.05
  WS02006243WS02006242        1.27      1.27      1.88      0.01         0.01
  WS02006242WS02006240        1.79      1.79      2.07      0.73         0.01
  WS02006240WS02006239        1.85      1.85      2.07      0.30         0.17
  WS02006239WS02006238        2.39      2.39      2.64      0.34         0.19
  WS02006238WS02006235        2.63      2.63      2.78      0.01         0.01
  WS02006235WS02006234        2.18      2.18      2.55      5.23         0.01
[...]
  YS02001770YS02001767        5.69      5.69      5.70      0.35         0.55
  YS02001774YS02001770        5.68      5.68      5.74      0.01         0.01
  YS02001779YS02001774        5.56      5.56      5.74      0.01         0.01
  YS02001649YS02001757        5.76      5.76      5.86      0.01         0.01
  YS02001767YS02001765        5.70      5.70      5.72      0.01         0.01
  YS02006561YS02001783        0.86      0.86      1.19      0.01         0.01
  YS02001783YS02001784        1.14      1.19      1.14      1.56         1.14
  YS02001784YS02001785        0.98      1.14      0.98      2.52         0.98
  YS02001788YS02001790        0.85      0.85      1.96      0.01         0.01
  YS02001790YS02001791        1.96      1.96      2.07      1.12         0.94
  YS02001791YS02001793        2.07      2.07      2.47      0.01         0.01
  YS02001910YS02001907        1.24      1.24      1.89      0.01         0.01
  YS02001786YS02001788        0.85      0.98      0.85      2.12         0.85
  YS02001915YS02001910        1.05      1.05      1.24      0.01         0.01
  YS02001918YS02001915        0.85      0.85      1.05      0.01         0.01
  YS02001923YS02001920        0.71      0.71      0.88      0.01         0.01
  YS02001920YS02001918        0.85      0.85      0.88      0.01         0.01
  YS02001629YS02163301        5.67      5.67      5.69      0.01         0.01
  YS02001619YS02001622        5.37      5.37      5.41      0.01         0.01
  YS02001622YS02001625        5.41      5.41      5.64      0.01         0.01
  YS02001625YS02001629        5.38      5.38      5.64      0.01         0.01
  YS02163301YS02001633        5.69      5.69      5.72      0.01         0.01
  YS02163601YS02164001        5.72      5.72      5.75      0.01         0.01
  YS02164001YS02001641        5.72      5.72      5.73      0.01         0.03
  YS02001641YS02001644        5.73      5.73      5.73      1.72         1.98
  YS02001647YS02001649        5.62      5.62      5.76      0.01         0.01
  YS02006553YS02006556        1.47      1.47      1.99      0.01         0.01
  YS02006556YS02006558        1.64      1.64      2.06      0.01         0.01
  YSB6556YSB1171              0.01      0.01      0.07      0.01         0.01
  YS02001907YS02006553        2.55      2.55      2.77      0.01         0.01
  YS02006558YS02006561        0.97      1.43      0.97      2.34         0.97
  YS02001633YS02163601        5.71      5.71      5.75      0.01         0.01
  YS02001644YS02001647        5.62      5.62      5.73      0.01         0.01
  YS02001745YS02001748        0.01      0.01      5.22      0.01         0.01
  YS02001748YS02001751        5.27      5.27      5.36      0.01         0.01
  YS02001751YS02001754        5.36      5.36      5.57      0.01         0.01
  YS02001754YS02001757        5.62      5.62      5.86      0.01         0.01
  YS02001882YS02001884        1.06      1.06      1.09      0.01         0.01
  YS02001884YS02001887        1.14      1.14      1.17      0.01         0.01
  YS02001890YS02001895        1.03      1.03      1.26      0.01         0.01
  YS02001895YS02001898        1.02      1.02      1.03      0.01         0.01
  YS02001898YS02001901        1.04      1.04      1.13      0.01         0.01
  YS02001901YS02001904        1.10      1.10      1.13      0.01         0.01
  YS02001904YS02001907        1.10      1.10      2.01      0.01         0.01
  YS02001887YS02001890        1.20      1.20      1.22      0.16         0.01
  YS02001652YS02001649        5.63      5.63      5.76      0.01         0.01
  YS02001655YS02001652        5.39      5.39      5.61      0.01         0.01
  YS02001658YS02001655        5.25      5.25      5.39      0.01         0.01
  YS02001661YS02001658        0.05      0.05      5.25      0.01         0.01
  YS02001664YS02001661        0.01      0.01      1.31      0.01         0.01
  HS02004881HS02006253        0.01      0.01      0.53      0.01         0.01
  YS02001793JiankangQianchi        2.37      2.37      4.23      0.01         0.01
  YS02001757CaochengTiaoxuchi        5.12      5.12      5.86      0.01         0.01
  
  
  ***************
  Pumping Summary
  ***************
  
  ---------------------------------------------------------------------------------------------------------
                                                  Min       Avg       Max     Total     Power    % Time Off
                        Percent   Number of      Flow      Flow      Flow    Volume     Usage    Pump Curve
  Pump                 Utilized   Start-Ups       LPS       LPS       LPS  10^6 ltr     Kw-hr    Low   High
  ---------------------------------------------------------------------------------------------------------
  CC-Pump-1               51.05           3      0.00    156.24    200.00     2.100      1.73    0.0    0.0
  CC-Pump-2               21.28           4      0.00     89.36    199.96     0.600      0.72    0.0    0.0
  JK-Pump-1               59.57           4      0.00    227.08    300.00     3.599     55.06    0.0    0.0
  JK-Pump-2               55.32           5      0.00    397.27    683.00     6.272     91.46    0.0   94.8
  XR-Pump-1              100.00           1      0.00     94.51     95.00     2.622     25.70    0.0    0.0
  XR-Pump-2               97.87           2      0.00     92.88     95.00     2.451     22.12    0.0    0.0
  XR-Pump-3               95.74           3      0.00     92.75     95.00     2.394     20.91    0.0    0.0
  XR-Pump-4               95.74           3      0.00     92.75     95.00     2.394     20.91    0.0    0.0
  
  
  ***************************
  Link Pollutant Load Summary
  ***************************
  
  ------------------------------------------------------------------------------------------
                                 COD            SS            TN            TP         NH4-N
  Link                            kg            kg            kg            kg            kg
  ------------------------------------------------------------------------------------------
  WS02003066WSF200           789.723      1479.932        20.816         1.835        10.983
  WS02006287WS02006284       319.492       608.142        10.315         1.015         5.679
  WS02006284WS02006280       319.974       608.933        10.361         1.021         5.708
  WS02006280WS02006229       319.922       608.828        10.359         1.020         5.706
  WS02006229WS02006228       786.706      1474.542        20.298         1.763        10.649
  WS02006256WS02006235       218.615       405.344         4.666         0.355         2.337
  WS02006253WS02006251        61.512       120.920         1.361         0.103         0.676
  WS02006252WS02006251       232.931       426.092         4.890         0.356         2.411
  WS02006251WS02006249       286.798       533.114         6.109         0.450         3.020
  WS02006249WS02006248       258.380       478.645         5.520         0.407         2.731
  WS02006248WS02006247       257.625       477.228         5.507         0.406         2.725
  WS02006247WS02006245       257.086       476.257         5.494         0.405         2.718
  WS02006245WS02006243       256.419       475.140         5.472         0.403         2.707
  WS02006243WS02006242       256.263       474.893         5.469         0.403         2.705
  WS02006242WS02006240       256.068       474.535         5.465         0.402         2.703
  WS02006240WS02006239       256.765       475.728         5.482         0.404         2.712
  WS02006239WS02006238       258.359       478.302         5.534         0.409         2.741
  WS02006238WS02006235       259.262       479.690         5.563         0.411         2.757
  WS02006235WS02006234       471.126       873.369        10.050         0.751         5.000
  WS02006234WS02006232       470.472       872.177        10.039         0.751         4.995
  WS02006232WS02006231       469.586       870.574        10.019         0.749         4.985
  WS02006231WS02006230       468.884       869.324        10.004         0.748         4.978
  WS02006230WS02006229       467.849       867.553         9.977         0.746         4.964
  WS02006228WS02006109       785.444      1472.270        20.264         1.760        10.631
  WS02006116WS02004401       798.133      1495.101        21.047         1.855        11.105
  WS02006115WS02006116       799.233      1497.052        21.080         1.858        11.123
  WS02006113WS02006111       790.416      1479.574        20.959         1.850        11.074
  WS02006112WS02006115       800.440      1499.144        21.125         1.862        11.148
  WS02006111WS02006112       789.898      1478.701        20.943         1.848        11.065
  WS02006110WS02006113       791.196      1480.971        20.987         1.853        11.089
  WS02006109WS02006110       792.685      1483.585        21.048         1.859        11.124
  WS02004411WS02004412       792.185      1484.208        20.925         1.846        11.046
  WS02004401WS02004402       797.056      1493.219        21.007         1.851        11.083
  WS02004413WS02003067       790.266      1480.974        20.832         1.836        10.991
  WS02004412WS02004413       791.359      1482.772        20.892         1.843        11.027
  WS02004410WS02004411       792.881      1485.457        20.950         1.849        11.060
  WS02004409WS02004410       793.597      1486.718        20.978         1.852        11.076
  WS02004407WS02004409       794.133      1487.703        20.994         1.853        11.084
  WS02004406WS02004407       794.251      1487.991        20.991         1.853        11.082
  WS02004405WS02004406       795.476      1490.136        21.049         1.859        11.116
  WS02004404WS02004405       795.929      1491.040        21.037         1.857        11.107
  WS02004403WS02004404       795.338      1490.190        20.947         1.845        11.049
  WS02004402WS02004403       796.157      1491.618        20.979         1.848        11.067
  WS02004139WS02001211      1376.413      2285.527       111.707        13.635        68.856
  WS02004138WS02004139      1382.658      2295.963       112.188        13.694        69.151
  WS02003067WS02003066       789.883      1480.216        20.824         1.835        10.987
  WS02001213WS02003059      1409.651      2337.747       115.154        14.070        71.022
  WS02001212WS02001213      1418.699      2352.742       115.886        14.160        71.474
  WS02001211WS02001212      1420.769      2356.128       116.064        14.182        71.584
  WS02003072WS02003073      2300.235      3978.036       145.953        17.157        88.257
  WS02003069WS02003072      2305.017      3985.758       146.365        17.208        88.513
  WS02003060WS02003069      2307.395      3989.842       146.510        17.225        88.599
  WS02003059WS02003060      1406.578      2332.542       114.936        14.044        70.889
  HS02004901HS02004770        13.094        25.475         0.248         0.019         0.116
  HS02004876HS02004881        45.516        90.350         0.999         0.073         0.491
  HS02004870HS02004876        34.383        68.106         0.798         0.060         0.395
  HS02004842HS02004848         6.456        12.343         0.134         0.009         0.062
  HS02004837HS02004842        11.055        19.635         0.603         0.068         0.356
  HS02004830HS02004837        70.297       122.725         4.643         0.552         2.827
  HS02004824HS02004830        71.068       123.981         4.715         0.561         2.871
  HS02004817HS02004824        97.163       176.406         5.254         0.596         3.135
  HS02004770HS02004777        49.663        97.715         1.021         0.069         0.472
  HS02004799HS02004480       162.328       310.847         4.263         0.379         2.209
  HS02004792HS02004799       147.277       280.130         4.028         0.367         2.105
  HS02004788HS02004792        82.819       157.691         2.666         0.255         1.440
  HS02004785HS02004788        51.122       100.051         1.172         0.089         0.567
  HS02004777HS02004785        50.447        98.945         1.112         0.081         0.530
  HS02004480HS02004478       204.828       395.201         4.972         0.429         2.544
  HS02004479HS02004480        46.131        90.119         1.037         0.091         0.538
  HS02004862HS02004870        25.800        50.340         0.628         0.050         0.314
  HS02004848HS02004852        10.252        19.885         0.210         0.014         0.097
  HS02004856HS02004862        17.524        34.750         0.350         0.023         0.164
  HS02004852HS02004856        10.255        19.890         0.210         0.014         0.097
  HS02004802HS02004478       115.338       214.047         5.397         0.592         3.169
  HS02004478WS02006287       319.702       608.506        10.332         1.017         5.689
  HS02004817HS02004807        95.856       174.310         5.130         0.581         3.057
  HS02004807HS02004802       115.595       214.448         5.430         0.596         3.189
  YS02001759YS02001757       314.137       578.120         6.248         0.435         3.053
  YS02001762YS02001759       170.898       313.998         3.563         0.252         1.759
  YS02001765YS02001762       172.344       317.540         3.607         0.256         1.783
  YS02001770YS02001767       176.503       327.808         3.546         0.240         1.728
  YS02001774YS02001770       301.405       581.985         5.835         0.389         2.823
  YS02001779YS02001774       300.675       580.546         5.920         0.403         2.883
  YS02001649YS02001757       361.931       657.043         7.256         0.497         3.489
  YS02001767YS02001765       174.468       322.390         3.658         0.259         1.809
  YS02006561YS02001783      1029.655      1909.039        21.568         1.609        10.731
  YS02001783YS02001784      1029.528      1908.837        21.564         1.609        10.729
  YS02001784YS02001785      1036.870      1920.605        22.278         1.698        11.175
  YS02001788YS02001790      1037.463      1921.570        22.350         1.708        11.222
  YS02001790YS02001791      1038.525      1923.328        22.451         1.720        11.285
  YS02001791YS02001793      1038.534      1923.343        22.449         1.720        11.283
  YS02001910YS02001907       391.220       721.589         9.386         0.718         4.809
  YS02001786YS02001788      1037.087      1920.983        22.306         1.702        11.194
  YS02001915YS02001910       391.286       721.696         9.338         0.711         4.777
  YS02001918YS02001915       186.130       328.334         5.123         0.466         2.758
  YS02001923YS02001920       165.498       294.957         3.164         0.222         1.535
  YS02001926YS02001923       164.466       293.226         3.097         0.214         1.495
  YS02001929YS02001926       164.241       292.854         3.066         0.210         1.475
  YS02001920YS02001918       185.290       326.613         5.077         0.461         2.731
  YS02001629YS02163301        96.118       169.962         2.029         0.131         0.946
  YS02001619YS02001622       175.889       321.162         3.602         0.236         1.684
  YS02001622YS02001625       174.687       319.249         3.573         0.234         1.671
  YS02001625YS02001629        97.203       171.735         2.053         0.132         0.957
  YS02163301YS02001633        96.499       170.868         2.032         0.132         0.949
  YS02163601YS02164001       405.733       733.166         7.899         0.562         3.784
  YS02164001YS02001641       405.198       732.258         7.878         0.560         3.772
  YS02001641YS02001644       405.271       732.301         7.874         0.560         3.770
  YS02001647YS02001649       466.159       857.993         9.224         0.637         4.403
  YS02006553YS02006556       695.743      1279.492        14.942         1.143         7.518
  YS02006556YS02006558       695.652      1279.308        14.913         1.139         7.499
  YSB6556YSB1171              26.525        51.972         0.537         0.045         0.272
  YS02001907YS02006553       695.845      1279.708        14.950         1.144         7.523
  YS02006558YS02006561      1029.666      1909.062        21.568         1.609        10.731
  YS02001633YS02163601       406.444       734.273         7.879         0.558         3.768
  YS02001644YS02001647       473.939       871.852         9.353         0.646         4.463
  YS02001745YS02001748       250.452       468.144         5.539         0.386         2.758
  YS02001748YS02001751       248.242       464.000         5.564         0.393         2.783
  YS02001751YS02001754       247.244       462.355         5.544         0.392         2.775
  YS02001754YS02001757       247.985       463.458         5.708         0.414         2.881
  YS02001882YS02001884         2.733         4.706         0.056         0.004         0.028
  YS02001884YS02001887         6.578        11.644         0.130         0.010         0.065
  YS02001890YS02001895       451.103       846.713         8.304         0.624         4.051
  YS02001895YS02001898       450.961       846.538         8.298         0.624         4.047
  YS02001898YS02001901       450.755       846.184         8.294         0.624         4.045
  YS02001901YS02001904       450.630       846.019         8.300         0.625         4.050
  YS02001904YS02001907       450.840       846.332         8.353         0.632         4.084
  YS02001887YS02001890       468.354       880.924         8.647         0.653         4.223
  YS02001652YS02001649       205.575       381.677         4.148         0.299         1.946
  YS02001655YS02001652       206.037       382.445         4.161         0.300         1.952
  YS02001658YS02001655       205.305       381.299         4.061         0.287         1.889
  YS02001661YS02001658       209.033       388.020         4.136         0.292         1.923
  YS02001664YS02001661       220.252       405.742         4.402         0.310         2.044
  YSB1154YSB6556              26.087        51.274         0.486         0.038         0.239
  YSB1174YSB1171              18.023        35.565         0.362         0.029         0.181
  YSB1171HS02004479           46.097        90.065         1.040         0.092         0.541
  HS02004881HS02006253        51.499       102.589         1.108         0.080         0.543
  YS02001793JiankangQianchi      1038.828      1923.764        22.467         1.722        11.294
  YS02001757CaochengTiaoxuchi       547.636       993.843        11.602         0.838         5.718
  WSF200WS02003060           789.592      1479.622        20.820         1.835        10.985
  1                         2306.364      3986.789       146.771        17.263        88.777
  CC-Pump-1                  180.786       330.701         3.795         0.276         1.871
  CC-Pump-2                   52.154        95.405         1.095         0.080         0.540
  JK-Pump-1                  263.396       491.347         5.498         0.413         2.738
  JK-Pump-2                  513.848       959.448        10.764         0.810         5.367
  XR-Pump-1                  380.100       629.134        31.331         3.833        19.339
  XR-Pump-2                  344.499       572.175        27.925         3.408        17.211
  XR-Pump-3                  330.849       550.336        26.615         3.244        16.393
  XR-Pump-4                  330.849       550.336        26.615         3.244        16.393
  

  Analysis begun on:  Thu Jul 15 10:47:13 2021
  Analysis ended on:  Thu Jul 15 10:47:16 2021
  Total elapsed time: 00:00:03