
  EPA STORM WATER MANAGEMENT MODEL - VERSION 5.1 (Build 5.3.0.dev0)
  --------------------------------------------------------------

  WARNING 04: minimum elevation drop used for Conduit WS02004404WS02004405
  WARNING 03: negative offset ignored for Link YS02001904YS02001907
  
  *********************************************************
  NOTE: The summary statistics displayed in this report are
  based on results found at every computational time step,  
  not just on results from each reporting time step.
  *********************************************************
  
  ****************
  Analysis Options
  ****************
  Flow Units ............... LPS
  Process Models:
    Rainfall/Runoff ........ YES
    RDII ................... NO
    Snowmelt ............... NO
    Groundwater ............ NO
    Flow Routing ........... YES
    Ponding Allowed ........ NO
    Water Quality .......... YES
  Infiltration Method ...... HORTON
  Flow Routing Method ...... DYNWAVE
  Surcharge Method ......... EXTRAN
  Starting Date ............ 08/28/2015 08:00:00
  Ending Date .............. 08/28/2015 15:50:00
  Antecedent Dry Days ...... 8.0
  Report Time Step ......... 00:01:00
  Wet Time Step ............ 00:01:00
  Dry Time Step ............ 00:01:00
  Routing Time Step ........ 5.00 sec
  Variable Time Step ....... YES
  Maximum Trials ........... 8
  Number of Threads ........ 4
  Head Tolerance ........... 0.001500 m
  
  
  **************************        Volume         Depth
  Runoff Quantity Continuity     hectare-m            mm
  **************************     ---------       -------
  Total Precipitation ......         6.144        13.452
  Evaporation Loss .........         0.000         0.000
  Infiltration Loss ........         1.064         2.328
  Surface Runoff ...........         4.147         9.079
  Final Storage ............         0.935         2.047
  Continuity Error (%) .....        -0.020
  
  
  **************************           COD            SS            TN            TP         NH4-N
  Runoff Quality Continuity             kg            kg            kg            kg            kg
  **************************    ----------    ----------    ----------    ----------    ----------
  Initial Buildup ..........     41378.656     70582.865      1804.177       168.684      1032.807
  Surface Buildup ..........        21.799        40.924         2.400         0.218         1.395
  Wet Deposition ...........         0.000         0.000         0.000         0.000         0.000
  Sweeping Removal .........         0.000         0.000         0.000         0.000         0.000
  Infiltration Loss ........        97.311       184.943         1.849         0.130         0.881
  BMP Removal ..............         0.000         0.000         0.000         0.000         0.000
  Surface Runoff ...........      3769.819      7064.251        72.781         4.964        34.599
  Remaining Buildup ........     37531.916     63371.884      1731.919       163.806       998.709
  Continuity Error (%) .....         0.003         0.004         0.002         0.001         0.001
  
  
  **************************        Volume        Volume
  Flow Routing Continuity        hectare-m      10^6 ltr
  **************************     ---------     ---------
  Dry Weather Inflow .......         0.616         6.165
  Wet Weather Inflow .......         4.145        41.453
  Groundwater Inflow .......         0.000         0.000
  RDII Inflow ..............         0.000         0.000
  External Inflow ..........         0.102         1.024
  External Outflow .........         1.784        17.844
  Flooding Loss ............         2.642        26.423
  Evaporation Loss .........         0.000         0.000
  Exfiltration Loss ........         0.000         0.000
  Initial Stored Volume ....         0.076         0.761
  Final Stored Volume ......         0.635         6.354
  Continuity Error (%) .....        -2.468
  
  
  **************************           COD            SS            TN            TP         NH4-N
  Quality Routing Continuity            kg            kg            kg            kg            kg
  **************************    ----------    ----------    ----------    ----------    ----------
  Dry Weather Inflow .......      1541.201      2465.922       147.955        18.494        92.472
  Wet Weather Inflow .......      3769.223      7063.294        72.767         4.964        34.593
  Groundwater Inflow .......         0.000         0.000         0.000         0.000         0.000
  RDII Inflow ..............         0.000         0.000         0.000         0.000         0.000
  External Inflow ..........       183.418       293.469        17.608         2.201        11.005
  External Outflow .........      2197.099      3788.436       144.133        17.048        87.418
  Flooding Loss ............      2594.217      4816.636        66.315         5.738        34.771
  Exfiltration Loss ........         0.000         0.000         0.000         0.000         0.000
  Mass Reacted .............         0.000         0.000         0.000         0.000         0.000
  Initial Stored Mass ......         0.000         0.000         0.000         0.000         0.000
  Final Stored Mass ........       577.017      1003.595        24.845         2.637        14.338
  Continuity Error (%) .....         2.285         2.179         1.275         0.918         1.117
  
  
  *************************
  Highest Continuity Errors
  *************************
  Node HS02004842 (13.41%)
  Node JK-storage (-11.53%)
  Node YS02001884 (10.24%)
  Node HS02004817 (2.53%)
  Node YSB1171 (2.46%)
  
  
  ***************************
  Time-Step Critical Elements
  ***************************
  Link WS02006252WS02006251 (45.97%)
  Link WS02006280WS02006229 (14.64%)
  Link WS02006238WS02006235 (13.31%)
  Link YS02001793JiankangQianchi (5.62%)
  Link YS02006556YS02006558 (5.37%)
  
  
  ********************************
  Highest Flow Instability Indexes
  ********************************
  Link WS02006113WS02006111 (52)
  Link YS02163601YS02164001 (29)
  Link YS02163301YS02001633 (29)
  Link YS02001629YS02163301 (29)
  Link YS02001619YS02001622 (28)
  
  
  *************************
  Routing Time Step Summary
  *************************
  Minimum Time Step           :     0.50 sec
  Average Time Step           :     1.57 sec
  Maximum Time Step           :     5.00 sec
  Percent in Steady State     :    -0.00
  Average Iterations per Step :     3.73
  Percent Not Converging      :    12.33
  
  
  ***************************
  Subcatchment Runoff Summary
  ***************************
  
  ------------------------------------------------------------------------------------------------------------------------------
                            Total      Total      Total      Total     Imperv       Perv      Total       Total     Peak  Runoff
                           Precip      Runon       Evap      Infil     Runoff     Runoff     Runoff      Runoff   Runoff   Coeff
  Subcatchment                 mm         mm         mm         mm         mm         mm         mm    10^6 ltr      LPS
  ------------------------------------------------------------------------------------------------------------------------------
  sub0                      13.45       0.00       0.00       0.63      12.47       0.31      12.77        0.01     3.75   0.950
  sub1                      13.45       0.00       0.00       1.12      11.88       0.36      12.24        0.08    25.66   0.910
  sub2                      13.45       0.00       0.00       4.44       8.39       0.53       8.92        0.08    25.29   0.663
  sub3                      13.45       0.00       0.00       4.56       8.35       0.42       8.77        0.20    55.75   0.652
  sub4                      13.45       0.00       0.00       1.22      11.71       0.26      11.97        0.25    65.52   0.890
  sub5                      13.45       0.00       0.00       0.68      12.41       0.26      12.67        0.14    44.76   0.942
  sub7                      13.45       0.00       0.00       0.86      12.18       0.35      12.53        0.04    14.26   0.931
  sub8                      13.45       0.00       0.00       0.87      12.17       0.34      12.50        0.08    26.26   0.930
  sub9                      13.45       0.00       0.00       0.88      12.17       0.33      12.50        0.06    19.64   0.929
  sub10                     13.45       0.00       0.00       0.78      12.29       0.29      12.58        0.14    44.00   0.935
  sub11                     13.45       0.00       0.00       0.77      12.30       0.31      12.61        0.15    48.45   0.938
  sub12                     13.45       0.00       0.00       1.25      11.66       0.50      12.16        0.11    38.10   0.904
  sub14                     13.45       0.00       0.00       0.88      12.16       0.33      12.49        0.12    38.67   0.929
  sub15                     13.45       0.00       0.00       3.37       9.35       0.66      10.01        0.17    57.01   0.744
  sub16                     13.45       0.00       0.00       3.56       8.97       0.88       9.85        0.10    37.63   0.732
  sub17                     13.45       0.00       0.00       3.47       9.10       0.84       9.94        0.09    30.67   0.739
  sub22                     13.45       0.00       0.00       4.98       7.63       0.81       8.43        0.53   184.54   0.627
  sub23                     13.45       0.00       0.00       4.17       8.43       0.81       9.24        0.44   154.22   0.687
  sub60                     13.45       0.00       0.00       1.53       9.85       0.09       9.93        3.01   438.14   0.738
  sub61                     13.45       0.00       0.00       2.16       9.95       0.12      10.07        3.11   536.45   0.749
  sub62                     13.45       0.00       0.00       0.98      10.84       0.10      10.94        3.36   552.35   0.813
  sub63                     13.45       0.00       0.00       3.77       8.69       0.14       8.83        2.67   492.63   0.656
  sub64                     13.45       0.00       0.00       1.93       9.45       0.09       9.54        2.90   416.72   0.709
  sub65                     13.45       0.00       0.00       1.67       9.61       0.08       9.70        2.98   423.09   0.721
  sub66                     13.45       0.00       0.00       3.81       8.10       0.09       8.18        2.51   380.66   0.608
  sub67                     13.45       0.00       0.00       0.95      11.38       0.13      11.51        3.55   679.52   0.856
  sub68                     13.45       0.00       0.00       1.75      10.45       0.13      10.59        3.26   586.26   0.787
  sub69                     13.45       0.00       0.00       1.83      10.79       0.19      10.98        2.57   544.72   0.816
  sub70                     13.45      11.20       0.00       7.51      14.65       0.88      15.52        3.55   494.81   0.630
  sub71                     13.45       0.00       0.00       0.99      10.58       0.09      10.67        2.52   389.24   0.793
  sub72                     13.45       0.00       0.00       0.89       8.56       0.05       8.61        1.75   189.18   0.640
  1                         13.45      15.11       0.00       1.37      16.56       4.63      21.19        4.98   484.42   0.742
  2                         13.45       0.00       0.00       3.02       3.21       1.96       5.17        2.07   340.45   0.384
  
  
  ****************************
  Subcatchment Washoff Summary
  ****************************
  
  ------------------------------------------------------------------------------------------
                                 COD            SS            TN            TP         NH4-N
  Subcatchment                    kg            kg            kg            kg            kg
  ------------------------------------------------------------------------------------------
  sub0                         2.670         5.197         0.046         0.004         0.022
  sub1                        11.241        22.423         0.210         0.015         0.101
  sub2                         6.894        13.384         0.145         0.010         0.067
  sub3                        16.924        32.573         0.350         0.024         0.161
  sub4                        25.772        51.904         0.510         0.031         0.245
  sub5                        25.778        50.682         0.460         0.035         0.223
  sub7                         5.751        11.638         0.108         0.007         0.052
  sub8                         8.581        17.755         0.171         0.010         0.082
  sub9                         7.353        15.005         0.142         0.009         0.068
  sub10                       21.202        42.223         0.389         0.028         0.188
  sub11                       20.657        41.614         0.386         0.026         0.187
  sub12                       17.724        35.094         0.321         0.024         0.155
  sub14                       15.732        31.800         0.298         0.020         0.144
  sub15                       20.231        39.321         0.389         0.028         0.182
  sub16                       13.129        25.518         0.249         0.019         0.117
  sub17                       12.049        23.208         0.222         0.017         0.105
  sub22                       62.582       119.432         1.186         0.090         0.554
  sub23                       36.683        72.439         0.776         0.051         0.357
  sub60                      243.520       456.962         4.842         0.298         2.321
  sub61                      302.151       564.434         5.627         0.386         2.710
  sub62                      313.722       596.076         6.119         0.388         2.938
  sub63                      223.275       410.850         4.468         0.314         2.075
  sub64                      305.877       553.773         5.626         0.410         2.687
  sub65                      313.037       569.066         5.795         0.415         2.772
  sub66                      176.068       321.340         3.608         0.236         1.687
  sub67                      466.222       877.505         8.365         0.616         4.045
  sub68                      332.037       626.413         6.347         0.429         3.034
  sub69                      298.258       568.561         5.590         0.393         2.674
  sub70                      502.897       962.303        10.037         0.699         4.710
  sub71                      206.745       396.330         4.242         0.246         2.030
  sub72                      164.385       293.107         3.069         0.210         1.476
  1                          349.075       671.606         7.102         0.495         3.297
  2                           42.749        75.577         1.214         0.073         0.518
  ------------------------------------------------------------------------------------------
  System                    4570.974      8595.115        88.408         6.057        41.983
  
  
  ******************
  Node Depth Summary
  ******************
  
  ---------------------------------------------------------------------------------
                                 Average  Maximum  Maximum  Time of Max    Reported
                                   Depth    Depth      HGL   Occurrence   Max Depth
  Node                 Type       Meters   Meters   Meters  days hr:min      Meters
  ---------------------------------------------------------------------------------
  WS02001211           JUNCTION     0.76     0.85     5.69     0  03:07        0.85
  WS02001212           JUNCTION     0.47     0.58     5.64     0  03:06        0.58
  WS02001213           JUNCTION     0.70     0.85     5.62     0  03:05        0.85
  WS02003069           JUNCTION     0.48     0.72     5.30     0  03:05        0.72
  WS02003072           JUNCTION     0.55     0.76     5.13     0  03:06        0.76
  WS02003073           JUNCTION     0.33     0.48     4.54     0  03:06        0.48
  WS02003060           JUNCTION     0.43     0.63     5.57     0  03:05        0.63
  WS02003066           JUNCTION     0.23     0.39     5.94     0  03:04        0.39
  WS02003059           JUNCTION     0.75     0.91     5.60     0  03:05        0.91
  WS02003067           JUNCTION     0.56     0.82     6.14     0  03:03        0.82
  WS02004401           JUNCTION     0.67     1.23     7.23     0  03:02        1.23
  WS02004402           JUNCTION     0.70     1.22     7.18     0  03:02        1.21
  WS02004403           JUNCTION     0.72     1.20     7.13     0  03:02        1.20
  WS02004404           JUNCTION     0.79     1.25     7.10     0  03:02        1.24
  WS02004406           JUNCTION     0.79     1.16     6.99     0  03:02        1.16
  WS02004409           JUNCTION     0.48     0.96     6.73     0  03:03        0.96
  WS02004410           JUNCTION     0.49     0.95     6.67     0  03:03        0.95
  WS02004411           JUNCTION     0.51     0.93     6.61     0  03:03        0.93
  WS02004412           JUNCTION     0.53     0.90     6.54     0  03:03        0.90
  WS02004413           JUNCTION     0.69     1.02     6.49     0  03:03        1.02
  WS02004405           JUNCTION     0.79     1.22     7.07     0  03:02        1.21
  WS02006109           JUNCTION     0.76     1.66     8.27     0  03:02        1.64
  WS02006110           JUNCTION     0.74     1.45     8.04     0  03:02        1.44
  WS02006111           JUNCTION     0.23     0.89     7.59     0  03:02        0.88
  WS02006112           JUNCTION     0.84     1.56     7.44     0  03:02        1.55
  WS02006113           JUNCTION     0.34     0.92     7.82     0  03:02        0.92
  WS02006115           JUNCTION     0.56     1.22     7.36     0  03:02        1.21
  WS02006116           JUNCTION     0.64     1.26     7.30     0  03:02        1.26
  WS02006230           JUNCTION     0.73     1.88     8.62     0  03:02        1.87
  WS02006231           JUNCTION     0.48     1.52     8.64     0  03:02        1.51
  WS02006232           JUNCTION     0.61     1.63     8.66     0  03:02        1.61
  WS02006234           JUNCTION     0.53     1.53     8.68     0  03:02        1.52
  WS02006235           JUNCTION     0.56     1.54     8.70     0  03:02        1.53
  WS02006238           JUNCTION     0.58     1.56     8.70     0  03:02        1.55
  WS02006240           JUNCTION     0.47     1.40     8.70     0  03:01        1.40
  WS02006242           JUNCTION     0.50     1.43     8.70     0  03:02        1.41
  WS02006243           JUNCTION     0.38     1.28     8.70     0  03:02        1.27
  WS02006245           JUNCTION     0.35     1.21     8.70     0  03:02        1.20
  WS02006247           JUNCTION     0.35     1.20     8.70     0  03:02        1.19
  WS02006248           JUNCTION     0.29     1.10     8.69     0  02:57        1.10
  WS02006249           JUNCTION     0.31     1.09     8.69     0  02:56        1.09
  WS02006239           JUNCTION     0.53     1.49     8.70     0  03:02        1.48
  WS02006251           JUNCTION     0.28     1.25     8.92     0  02:56        1.09
  WS02006252           JUNCTION     0.18     0.70     8.94     0  02:56        0.58
  WS02006253           JUNCTION     0.32     1.31     8.95     0  02:56        1.19
  WS02006256           JUNCTION     1.73     2.35     9.28     0  00:18        2.35
  WS02004138           JUNCTION     0.18     0.20     7.45     0  00:00        0.19
  WS02004139           JUNCTION     0.70     0.79     5.70     0  03:07        0.79
  WS02004407           JUNCTION     0.21     0.40     6.71     0  03:03        0.40
  WS02006228           JUNCTION     0.76     1.83     8.48     0  03:02        1.82
  WS02006229           JUNCTION     0.74     1.90     8.60     0  03:02        1.89
  WS02006280           JUNCTION     0.08     0.30     8.57     0  03:04        0.30
  WS02006284           JUNCTION     0.38     0.65     9.04     0  03:02        0.64
  WS02006287           JUNCTION     0.11     0.39     9.34     0  03:02        0.39
  WSF200               JUNCTION     0.21     0.44     5.67     0  03:04        0.44
  HS02004901           JUNCTION     0.13     0.38    10.20     0  03:01        0.37
  HS02004881           JUNCTION     0.01     0.05     9.08     0  03:01        0.05
  HS02004876           JUNCTION     0.05     0.16     9.19     0  03:01        0.16
  HS02004870           JUNCTION     0.02     0.09     9.38     0  03:01        0.09
  HS02004862           JUNCTION     0.02     0.11     9.49     0  03:01        0.11
  HS02004856           JUNCTION     0.08     0.15     9.58     0  03:01        0.15
  HS02004852           JUNCTION     0.01     0.07     9.59     0  03:02        0.07
  HS02004848           JUNCTION     0.01     0.07     9.67     0  03:01        0.07
  HS02004842           JUNCTION     0.33     0.40     9.67     0  03:01        0.40
  HS02004837           JUNCTION     0.03     0.09     9.67     0  03:01        0.09
  HS02004830           JUNCTION     0.04     0.10     9.57     0  03:02        0.10
  HS02004824           JUNCTION     0.03     0.13     9.53     0  03:02        0.13
  HS02004817           JUNCTION     0.45     0.69     9.54     0  03:02        0.69
  HS02004807           JUNCTION     0.13     0.36     9.53     0  03:02        0.36
  HS02004802           JUNCTION     0.17     0.39     9.52     0  03:02        0.39
  HS02004799           JUNCTION     0.13     0.46     9.68     0  03:01        0.46
  HS02004792           JUNCTION     0.04     0.22     9.74     0  03:01        0.21
  HS02004788           JUNCTION     0.03     0.16    10.05     0  03:02        0.16
  HS02004785           JUNCTION     0.05     0.25    10.15     0  03:02        0.25
  HS02004777           JUNCTION     0.16     0.39    10.19     0  03:01        0.39
  HS02004770           JUNCTION     0.13     0.37    10.20     0  03:01        0.36
  HS02004480           JUNCTION     0.09     0.38     9.62     0  03:01        0.38
  HS02004479           JUNCTION     0.13     0.42     9.62     0  03:01        0.42
  HS02004478           JUNCTION     0.07     0.28     9.50     0  03:01        0.28
  YS02001745           JUNCTION     0.71     0.95     8.47     0  03:01        0.95
  YS02001748           JUNCTION     1.09     2.15     9.23     0  02:32        1.38
  YS02001751           JUNCTION     1.27     1.66     8.54     0  02:32        1.58
  YS02001754           JUNCTION     1.52     1.85     8.46     0  03:18        1.84
  YS02001762           JUNCTION     1.71     2.05     8.45     0  03:19        2.04
  YS02001765           JUNCTION     1.66     2.00     8.45     0  03:18        1.98
  YS02001767           JUNCTION     1.63     1.95     8.44     0  03:19        1.94
  YS02001770           JUNCTION     1.62     1.93     8.43     0  03:01        1.93
  YS02001774           JUNCTION     1.69     1.99     8.41     0  03:00        1.98
  YS02001779           JUNCTION     1.44     1.68     8.37     0  02:32        1.68
  YS02001882           JUNCTION     0.57     1.63     8.35     0  03:00        1.63
  YS02001884           JUNCTION     0.66     1.74     8.35     0  03:00        1.73
  YS02001759           JUNCTION     1.75     2.09     8.45     0  03:19        2.08
  YS02001887           JUNCTION     0.74     1.81     8.35     0  03:00        1.80
  YS02001890           JUNCTION     0.77     1.81     8.32     0  02:46        1.81
  YS02001898           JUNCTION     0.54     1.56     8.30     0  02:58        1.56
  YS02001901           JUNCTION     0.65     1.68     8.29     0  02:46        1.67
  YS02001904           JUNCTION     0.63     1.64     8.27     0  02:57        1.63
  YS02001907           JUNCTION     0.96     1.96     8.25     0  02:46        1.96
  YS02001910           JUNCTION     0.75     1.78     8.29     0  02:47        1.78
  YS02001915           JUNCTION     0.55     1.61     8.33     0  02:47        1.60
  YS02001918           JUNCTION     0.30     1.30     8.37     0  02:47        1.30
  YS02001619           JUNCTION     1.23     1.61     8.54     0  02:32        1.48
  YS02001629           JUNCTION     1.57     1.85     8.40     0  02:32        1.84
  YS02001641           JUNCTION     1.67     1.94     8.37     0  02:45        1.93
  YS02001644           JUNCTION     1.67     1.92     8.35     0  02:39        1.92
  YS02001652           JUNCTION     1.53     2.03     8.62     0  02:46        1.89
  YS02001655           JUNCTION     1.30     1.99     8.84     0  02:46        1.70
  YS02001920           JUNCTION     0.40     1.38     8.39     0  02:47        1.38
  YS02001923           JUNCTION     0.24     1.15     8.41     0  02:47        1.15
  YS02001926           JUNCTION     0.29     0.96     8.40     0  02:46        0.94
  YS02001929           JUNCTION     0.17     0.72     8.42     0  02:46        0.69
  YS02001658           JUNCTION     1.03     1.91     9.05     0  02:46        1.46
  YS02001661           JUNCTION     0.81     1.85     9.25     0  02:46        1.22
  YS02001664           JUNCTION     0.37     0.56     8.49     0  02:44        0.56
  YS02001622           JUNCTION     1.25     1.62     8.52     0  02:32        1.50
  YS02001633           JUNCTION     1.66     1.95     8.40     0  02:46        1.94
  YS02001649           JUNCTION     1.72     2.05     8.44     0  02:43        2.04
  YS02001757           JUNCTION     1.84     2.19     8.45     0  03:18        2.18
  YS02001895           JUNCTION     0.53     1.57     8.31     0  02:54        1.56
  YS02001625           JUNCTION     1.53     1.78     8.38     0  02:32        1.78
  YS02163301           JUNCTION     1.60     1.88     8.40     0  02:55        1.88
  YS02163601           JUNCTION     1.71     1.99     8.39     0  02:53        1.98
  YS02164001           JUNCTION     1.65     1.92     8.37     0  02:54        1.91
  YS02001647           JUNCTION     1.51     1.80     8.41     0  02:46        1.78
  YSB1154              JUNCTION     0.27     0.57     9.62     0  03:01        0.57
  YSB6556              JUNCTION     0.16     0.45     9.62     0  03:02        0.45
  YSB1174              JUNCTION     0.22     0.52     9.62     0  03:01        0.51
  YSB1171              JUNCTION     0.42     0.72     9.62     0  03:01        0.72
  YS02006553           JUNCTION     0.96     1.97     8.25     0  03:00        1.97
  YS02006561           JUNCTION     0.32     1.08     7.74     0  02:47        1.07
  YS02006556           JUNCTION     0.93     1.93     8.24     0  03:01        1.93
  YS02006558           JUNCTION     0.97     1.98     8.24     0  02:59        1.97
  YS02001783           JUNCTION     0.54     1.60     7.74     0  02:35        1.46
  YS02001784           JUNCTION     0.55     1.43     7.50     0  02:35        1.40
  YS02001786           JUNCTION     0.49     1.41     7.44     0  02:35        1.25
  YS02001788           JUNCTION     0.42     1.45     7.43     0  02:35        1.13
  YS02001790           JUNCTION     0.53     1.74     7.38     0  02:35        1.29
  YS02001791           JUNCTION     0.49     1.54     7.01     0  02:34        1.27
  YS02001793           JUNCTION     0.65     1.89     6.73     0  02:35        1.80
  WSC                  OUTFALL      0.33     0.48     1.15     0  03:07        0.48
  JK-storage           STORAGE      2.51     5.80     6.60     0  02:35        5.80
  CC-storage           STORAGE      1.11     1.45     8.45     0  03:16        1.45
  XR-storage           STORAGE      6.48     7.72     5.72     0  02:55        7.72
  
  
  *******************
  Node Inflow Summary
  *******************
  
  -------------------------------------------------------------------------------------------------
                                  Maximum  Maximum                  Lateral       Total        Flow
                                  Lateral    Total  Time of Max      Inflow      Inflow     Balance
                                   Inflow   Inflow   Occurrence      Volume      Volume       Error
  Node                 Type           LPS      LPS  days hr:min    10^6 ltr    10^6 ltr     Percent
  -------------------------------------------------------------------------------------------------
  WS02001211           JUNCTION      7.35   391.97     0  03:17       0.207        9.97       0.403
  WS02001212           JUNCTION      0.00   396.63     0  03:16           0        9.93       0.245
  WS02001213           JUNCTION      0.00   400.62     0  03:16           0         9.9       0.280
  WS02003069           JUNCTION      0.32  1329.68     0  03:05     0.00902        17.9       0.182
  WS02003072           JUNCTION      0.00  1329.40     0  03:05           0        17.9       0.222
  WS02003073           JUNCTION      1.82  1331.47     0  03:06      0.0514        17.9       0.258
  WS02003060           JUNCTION     16.53  1329.23     0  03:04       0.466        17.9       0.170
  WS02003066           JUNCTION      0.00   938.79     0  03:04           0        7.64       0.050
  WS02003059           JUNCTION      0.00   405.63     0  03:17           0        9.88       0.402
  WS02003067           JUNCTION      0.00   938.20     0  03:04           0        7.64       0.107
  WS02004401           JUNCTION      0.00   939.82     0  03:02           0        7.83       0.209
  WS02004402           JUNCTION      0.00   939.82     0  03:02           0        7.82       0.203
  WS02004403           JUNCTION      0.00   940.22     0  03:02           0         7.8       0.190
  WS02004404           JUNCTION      0.16   940.80     0  03:02     0.00457        7.79       0.150
  WS02004406           JUNCTION      0.00   940.51     0  03:02           0        7.76       0.366
  WS02004409           JUNCTION      0.00   939.55     0  03:03           0        7.73       0.159
  WS02004410           JUNCTION      0.00   938.60     0  03:03           0        7.72       0.190
  WS02004411           JUNCTION      0.00   937.92     0  03:03           0         7.7       0.202
  WS02004412           JUNCTION      0.00   937.58     0  03:03           0        7.69       0.226
  WS02004413           JUNCTION      0.00   938.09     0  03:04           0        7.67       0.346
  WS02004405           JUNCTION      0.04   941.20     0  03:02     0.00107        7.78       0.222
  WS02006109           JUNCTION      1.23   915.44     0  03:02      0.0347        7.83       0.122
  WS02006110           JUNCTION      0.00   915.69     0  03:02           0        7.82       0.170
  WS02006111           JUNCTION      0.00   915.96     0  03:02           0         7.8       0.020
  WS02006112           JUNCTION     30.67   939.64     0  03:02      0.0853        7.88       0.310
  WS02006113           JUNCTION      0.00   915.78     0  03:02           0        7.81       0.063
  WS02006115           JUNCTION      0.00   939.45     0  03:02           0        7.86       0.177
  WS02006116           JUNCTION      0.00   939.82     0  03:02           0        7.85       0.151
  WS02006230           JUNCTION     10.28   523.56     0  07:14        0.29        5.39       0.149
  WS02006231           JUNCTION      0.00   512.38     0  07:14           0         5.1       0.010
  WS02006232           JUNCTION      0.00   512.27     0  07:14           0        5.11       0.146
  WS02006234           JUNCTION      0.00   512.33     0  07:14           0        5.11      -0.012
  WS02006235           JUNCTION      0.00   512.60     0  07:14           0        5.24       0.090
  WS02006238           JUNCTION      0.00   314.78     0  07:14           0        1.68       0.035
  WS02006240           JUNCTION      0.00   314.75     0  07:14           0        1.56       0.091
  WS02006242           JUNCTION      0.00   314.90     0  07:14           0        1.51       0.112
  WS02006243           JUNCTION      0.00   315.24     0  07:14           0        1.48      -0.086
  WS02006245           JUNCTION      0.00   315.66     0  07:14           0        1.47       0.347
  WS02006247           JUNCTION      0.00   337.22     0  07:10           0        1.46       0.044
  WS02006248           JUNCTION      0.00   354.12     0  07:10           0        1.45      -0.129
  WS02006249           JUNCTION      0.00   372.17     0  07:10           0        1.56       0.171
  WS02006239           JUNCTION      0.00   314.74     0  07:14           0        1.62      -0.066
  WS02006251           JUNCTION      0.08   399.59     0  07:10     0.00217        1.59      -0.052
  WS02006252           JUNCTION      0.00   399.83     0  07:10           0        1.08       0.021
  WS02006253           JUNCTION      3.75   143.68     0  03:01      0.0103       0.501      -0.021
  WS02006256           JUNCTION      0.00   983.00     0  02:10           0        10.2       0.011
  WS02004138           JUNCTION      0.00   380.00     0  00:00           0         9.8       0.067
  WS02004139           JUNCTION      0.32   394.45     0  00:00     0.00905        9.81       0.464
  WS02004407           JUNCTION      0.00   940.11     0  03:02           0        7.74       0.065
  WS02006228           JUNCTION      0.00   914.39     0  03:02           0         7.8       0.087
  WS02006229           JUNCTION      0.00   918.79     0  03:01           0        7.81       0.131
  WS02006280           JUNCTION      0.00   680.04     0  03:02           0        2.43       0.008
  WS02006284           JUNCTION      0.10   678.92     0  03:02      0.0027        2.43       0.046
  WS02006287           JUNCTION      0.00   677.56     0  03:02           0        2.43       0.031
  WSF200               JUNCTION      0.00   938.99     0  03:04           0        7.63       0.046
  HS02004901           JUNCTION     37.63    37.63     0  03:01       0.103       0.103       1.740
  HS02004881           JUNCTION     14.26   140.55     0  03:01      0.0422       0.463       0.064
  HS02004876           JUNCTION     25.66   127.65     0  03:01      0.0814       0.422       0.131
  HS02004870           JUNCTION     26.26   103.59     0  03:01      0.0799        0.34       0.035
  HS02004862           JUNCTION     25.49    79.37     0  03:01      0.0888       0.261       0.068
  HS02004856           JUNCTION     19.64    55.41     0  03:01      0.0601       0.173       0.844
  HS02004852           JUNCTION      0.00    37.85     0  03:01           0       0.113       0.053
  HS02004848           JUNCTION     55.75    55.75     0  03:01       0.197       0.197       0.028
  HS02004842           JUNCTION      0.00    16.84     0  03:01           0       0.097      15.491
  HS02004837           JUNCTION     50.35    65.69     0  03:01       0.318       0.402       0.204
  HS02004830           JUNCTION      0.15    64.80     0  03:01     0.00423       0.392       0.316
  HS02004824           JUNCTION     65.57   128.44     0  03:01       0.251       0.642       0.086
  HS02004817           JUNCTION      0.60   124.47     0  03:01      0.0169       0.658       2.599
  HS02004807           JUNCTION     48.45   165.77     0  03:01       0.147       0.788       0.554
  HS02004802           JUNCTION      0.00   165.32     0  03:04           0       0.785       0.506
  HS02004799           JUNCTION     38.67   446.12     0  03:01       0.119        1.42       0.191
  HS02004792           JUNCTION    184.82   411.82     0  03:01        0.54         1.3       0.033
  HS02004788           JUNCTION     58.68   233.44     0  03:02       0.219       0.758       0.052
  HS02004785           JUNCTION      0.15   182.21     0  03:01     0.00423        0.54       0.094
  HS02004777           JUNCTION      0.03   185.03     0  03:01    0.000846       0.541       0.972
  HS02004770           JUNCTION    154.22   188.91     0  03:01       0.441       0.542       0.577
  HS02004480           JUNCTION      0.00   517.21     0  03:01           0        1.66       0.069
  HS02004479           JUNCTION      0.00    75.52     0  03:02           0       0.258       0.287
  HS02004478           JUNCTION      0.00   676.93     0  03:02           0        2.43       0.012
  YS02001745           JUNCTION    438.14   438.14     0  03:01        3.01        3.02       0.380
  YS02001748           JUNCTION      0.04   594.96     0  02:32     0.00127        3.01       0.692
  YS02001751           JUNCTION      0.01   443.88     0  03:01     0.00031        2.98       0.798
  YS02001754           JUNCTION      0.26   444.15     0  03:01     0.00733        2.96       0.852
  YS02001762           JUNCTION      0.00   313.76     0  02:43           0        2.15       0.998
  YS02001765           JUNCTION      0.00   313.57     0  02:43           0        2.15       1.157
  YS02001767           JUNCTION      0.54   313.35     0  02:43      0.0151        2.18       1.691
  YS02001770           JUNCTION    552.50   699.49     0  03:16        3.37        4.28       0.753
  YS02001774           JUNCTION      0.00   699.59     0  03:16           0           3       0.852
  YS02001779           JUNCTION      0.01   699.64     0  03:16    0.000141        2.97       0.524
  YS02001882           JUNCTION      0.00    29.74     0  02:37           0      0.0203      10.266
  YS02001884           JUNCTION      0.00    59.88     0  02:37           0      0.0582      11.412
  YS02001759           JUNCTION    536.49   621.33     0  02:43        3.11        4.31       0.539
  YS02001887           JUNCTION    679.97   679.97     0  03:01        3.57         3.6       0.228
  YS02001890           JUNCTION      0.00   680.10     0  03:01           0        3.55       0.250
  YS02001898           JUNCTION      0.00   518.27     0  03:03           0        3.45       0.084
  YS02001901           JUNCTION      0.00   518.59     0  03:04           0        3.45       0.188
  YS02001904           JUNCTION      0.00   518.36     0  02:57           0        3.45       0.162
  YS02001907           JUNCTION      0.00  1098.65     0  03:00           0        7.77       0.292
  YS02001910           JUNCTION      0.00   581.98     0  03:00           0        4.34       0.269
  YS02001915           JUNCTION    389.26   582.07     0  03:01        2.52        4.37       0.131
  YS02001918           JUNCTION      0.00   252.22     0  02:47           0        1.87       0.074
  YS02001619           JUNCTION    380.66   380.66     0  03:01        2.51        2.51       0.484
  YS02001629           JUNCTION      0.00   196.43     0  02:39           0        1.59       1.854
  YS02001641           JUNCTION      0.00   412.09     0  02:39           0        4.45       0.482
  YS02001644           JUNCTION    416.76  1527.08     0  03:01         2.9        12.4       0.219
  YS02001652           JUNCTION      0.00   500.38     0  03:01           0        2.61       0.913
  YS02001655           JUNCTION      0.15   500.93     0  03:01     0.00434        2.64       0.946
  YS02001920           JUNCTION      2.87   252.18     0  02:47      0.0809        1.86       0.144
  YS02001923           JUNCTION      0.04   232.21     0  02:47     0.00106        1.76       0.053
  YS02001926           JUNCTION      0.05   203.60     0  02:47     0.00147        1.76       0.193
  YS02001929           JUNCTION    189.18   189.18     0  03:01        1.75        1.75       0.039
  YS02001658           JUNCTION      0.00   583.89     0  02:29           0        2.67       0.820
  YS02001661           JUNCTION      0.00   638.67     0  02:53           0        2.84       0.322
  YS02001664           JUNCTION    492.63   492.63     0  03:01        2.67        2.83       0.208
  YS02001622           JUNCTION      0.00   381.77     0  03:01           0         2.5       1.290
  YS02001633           JUNCTION    423.29   423.29     0  03:01        2.99        4.52       0.721
  YS02001649           JUNCTION      0.00   871.71     0  02:40           0        7.12       0.528
  YS02001757           JUNCTION      0.00  1677.23     0  02:40           0        8.71       1.064
  YS02001895           JUNCTION      0.00   518.98     0  03:04           0        3.46       0.140
  YS02001625           JUNCTION      0.00   407.97     0  03:01           0        2.48       1.596
  YS02163301           JUNCTION      0.00   202.10     0  02:31           0        1.57       1.575
  YS02163601           JUNCTION      0.11   412.69     0  02:39      0.0031        4.48       0.680
  YS02164001           JUNCTION      0.00   412.56     0  02:39           0        4.46       0.464
  YS02001647           JUNCTION      0.00   807.59     0  03:18           0        6.42       0.443
  YSB1154              JUNCTION     44.76    44.76     0  03:01       0.144       0.144       1.017
  YSB6556              JUNCTION      0.00    43.29     0  03:01           0       0.145       0.869
  YSB1174              JUNCTION     38.10    38.10     0  03:01       0.106       0.107       1.221
  YSB1171              JUNCTION      0.00    76.93     0  03:01           0       0.257       2.526
  YS02006553           JUNCTION      0.00   708.73     0  03:47           0         6.7       0.217
  YS02006561           JUNCTION      0.00   983.79     0  03:00           0        9.92       0.005
  YS02006556           JUNCTION      0.00   709.20     0  03:47           0         6.7       0.146
  YS02006558           JUNCTION    587.14   984.69     0  02:59        3.28        9.95       0.048
  YS02001783           JUNCTION      0.00   983.73     0  03:00           0        9.92       0.020
  YS02001784           JUNCTION      1.06   984.74     0  03:00      0.0299        9.95       0.033
  YS02001786           JUNCTION      0.06   984.55     0  03:00     0.00159        9.95       0.032
  YS02001788           JUNCTION      0.07   984.69     0  02:59       0.002        9.95       0.020
  YS02001790           JUNCTION      0.15   985.07     0  03:00     0.00437        9.95       0.012
  YS02001791           JUNCTION      0.00   984.77     0  03:00           0        9.95       0.006
  YS02001793           JUNCTION      0.00   985.28     0  03:01           0        9.96      -0.015
  WSC                  OUTFALL       0.00  1331.77     0  03:07           0        17.8       0.000
  JK-storage           STORAGE       0.00  1083.93     0  02:05           0        10.1     -10.339
  CC-storage           STORAGE       0.00  1678.62     0  02:40           0        5.36       1.226
  XR-storage           STORAGE    1024.87  1024.87     0  03:01        12.7        13.3      -0.002
  
  
  **********************
  Node Surcharge Summary
  **********************
  
  Surcharging occurs when water rises above the top of the highest conduit.
  ---------------------------------------------------------------------
                                               Max. Height   Min. Depth
                                   Hours       Above Crown    Below Rim
  Node                 Type      Surcharged         Meters       Meters
  ---------------------------------------------------------------------
  WS02004401           JUNCTION        0.37          0.234        1.426
  WS02004402           JUNCTION        0.40          0.224        1.516
  WS02004403           JUNCTION        0.40          0.200        1.830
  WS02004404           JUNCTION        0.53          0.247        2.533
  WS02004406           JUNCTION        0.48          0.164        2.286
  WS02004413           JUNCTION        0.18          0.023        2.177
  WS02004405           JUNCTION        0.51          0.219        2.581
  WS02006109           JUNCTION        2.03          0.836        0.984
  WS02006110           JUNCTION        0.90          0.542        1.308
  WS02006111           JUNCTION        0.13          0.076        1.794
  WS02006112           JUNCTION        1.23          0.559        1.121
  WS02006113           JUNCTION        0.15          0.124        1.806
  WS02006115           JUNCTION        0.29          0.207        2.043
  WS02006116           JUNCTION        0.31          0.201        2.089
  WS02006230           JUNCTION        0.55          0.797        0.773
  WS02006231           JUNCTION        0.69          0.811        0.719
  WS02006232           JUNCTION        1.64          0.926        0.554
  WS02006234           JUNCTION        0.89          0.807        0.433
  WS02006235           JUNCTION        1.05          0.831        0.459
  WS02006238           JUNCTION        1.16          0.837        0.593
  WS02006240           JUNCTION        0.73          0.692        0.698
  WS02006242           JUNCTION        0.75          0.701        0.119
  WS02006243           JUNCTION        0.57          0.571        0.199
  WS02006245           JUNCTION        0.50          0.504        0.346
  WS02006247           JUNCTION        0.49          0.488        0.272
  WS02006248           JUNCTION        0.42          0.380        0.000
  WS02006249           JUNCTION        0.43          0.390        0.000
  WS02006239           JUNCTION        0.83          0.747        0.543
  WS02006251           JUNCTION        0.18          0.218        0.962
  WS02006252           JUNCTION        0.41          0.299        0.801
  WS02006253           JUNCTION        0.20          0.270        2.210
  WS02006256           JUNCTION        6.92          2.050        0.000
  WS02006228           JUNCTION        2.00          1.000        1.200
  YS02001748           JUNCTION        5.23          1.069        0.121
  YS02001751           JUNCTION        5.37          0.663        0.537
  YS02001754           JUNCTION        5.58          0.799        0.351
  YS02001762           JUNCTION        5.75          1.047        0.103
  YS02001765           JUNCTION        5.72          0.997        0.103
  YS02001767           JUNCTION        5.69          0.947        0.083
  YS02001770           JUNCTION        5.68          0.903        0.017
  YS02001774           JUNCTION        5.74          0.986        0.064
  YS02001779           JUNCTION        5.56          0.680        0.000
  YS02001882           JUNCTION        1.12          0.635        0.195
  YS02001884           JUNCTION        1.15          0.677        0.193
  YS02001759           JUNCTION        5.78          1.086        0.124
  YS02001887           JUNCTION        1.20          0.765        0.185
  YS02001890           JUNCTION        1.23          0.760        0.000
  YS02001898           JUNCTION        1.09          0.531        0.209
  YS02001901           JUNCTION        1.17          0.677        0.193
  YS02001904           JUNCTION        1.16          0.636        0.214
  YS02001907           JUNCTION        1.92          0.950        0.000
  YS02001910           JUNCTION        1.27          0.784        0.316
  YS02001915           JUNCTION        1.11          0.612        0.388
  YS02001918           JUNCTION        0.94          0.304        0.506
  YS02001619           JUNCTION        5.37          0.610        0.000
  YS02001629           JUNCTION        5.39          0.470        0.000
  YS02001641           JUNCTION        5.73          0.936        0.164
  YS02001644           JUNCTION        5.73          0.920        0.000
  YS02001652           JUNCTION        5.61          0.995        0.135
  YS02001655           JUNCTION        5.39          0.986        0.214
  YS02001920           JUNCTION        0.97          0.384        0.756
  YS02001658           JUNCTION        5.25          0.909        0.391
  YS02001661           JUNCTION        0.05          0.778        0.612
  YS02001622           JUNCTION        5.41          0.620        0.000
  YS02001633           JUNCTION        5.71          0.927        0.133
  YS02001649           JUNCTION        5.76          1.050        0.000
  YS02001757           JUNCTION        5.86          1.191        0.019
  YS02001895           JUNCTION        1.10          0.566        0.184
  YS02001625           JUNCTION        5.64          0.780        0.000
  YS02163301           JUNCTION        5.68          0.882        0.148
  YS02163601           JUNCTION        5.75          0.987        0.093
  YS02164001           JUNCTION        5.72          0.917        0.183
  YS02001647           JUNCTION        5.62          0.803        0.097
  YS02006553           JUNCTION        1.99          0.971        0.219
  YS02006561           JUNCTION        1.00          0.281        0.869
  YS02006556           JUNCTION        1.48          0.892        0.458
  YS02006558           JUNCTION        1.44          0.877        0.523
  YS02001783           JUNCTION        1.28          0.803        0.797
  YS02001784           JUNCTION        1.26          0.628        0.862
  YS02001786           JUNCTION        1.21          0.613        0.817
  YS02001788           JUNCTION        1.16          0.652        0.828
  YS02001790           JUNCTION        2.07          0.938        0.219
  YS02001791           JUNCTION        2.16          0.736        1.184
  YS02001793           JUNCTION        2.40          0.894        1.706
  
  
  *********************
  Node Flooding Summary
  *********************
  
  Flooding refers to all water that overflows a node, whether it ponds or not.
  --------------------------------------------------------------------------
                                                             Total   Maximum
                                 Maximum   Time of Max       Flood    Ponded
                        Hours       Rate    Occurrence      Volume     Depth
  Node                 Flooded       LPS   days hr:min    10^6 ltr    Meters
  --------------------------------------------------------------------------
  WS02006248              0.07     14.77      0  03:03       0.002     0.000
  WS02006249              0.19    227.57      0  03:00       0.101     0.000
  WS02006256              3.87    831.14      0  03:02       6.550     0.000
  YS02001779              3.18    699.64      0  03:16       2.954     0.000
  YS02001890              0.34    163.32      0  03:01       0.085     0.000
  YS02001907              0.80    703.31      0  03:01       1.068     0.000
  YS02001619              0.01     17.88      0  02:32       0.000     0.000
  YS02001629              0.01     23.92      0  02:32       0.000     0.000
  YS02001644              4.84   1526.33      0  03:01      11.086     0.000
  YS02001622              0.01     15.36      0  02:32       0.000     0.000
  YS02001649              0.01     26.17      0  02:46       0.000     0.000
  YS02001625              1.38    407.87      0  03:01       0.855     0.000
  JK-storage              0.92    768.92      0  02:40       0.994     0.000
  XR-storage              3.52    644.82      0  03:01       2.729     0.000
  
  
  **********************
  Storage Volume Summary
  **********************
  
  --------------------------------------------------------------------------------------------------
                         Average     Avg  Evap Exfil       Maximum     Max    Time of Max    Maximum
                          Volume    Pcnt  Pcnt  Pcnt        Volume    Pcnt     Occurrence    Outflow
  Storage Unit           1000 m3    Full  Loss  Loss       1000 m3    Full    days hr:min        LPS
  --------------------------------------------------------------------------------------------------
  JK-storage               0.126      43     0     0         0.291     100       0  02:35     983.00
  CC-storage               3.084      20     0     0         4.046      26       0  03:16     399.83
  XR-storage               0.777      84     0     0         0.926     100       0  02:55     380.00
  
  
  ***********************
  Outfall Loading Summary
  ***********************
  
  ---------------------------------------------------------------------------------------------------------------------------------
                         Flow       Avg       Max       Total         Total         Total         Total         Total         Total
                         Freq      Flow      Flow      Volume           COD            SS            TN            TP         NH4-N
  Outfall Node           Pcnt       LPS       LPS    10^6 ltr            kg            kg            kg            kg            kg
  ---------------------------------------------------------------------------------------------------------------------------------
  WSC                   99.99    694.99   1331.77      17.844      2197.252      3788.684       144.146        17.050        87.427
  ---------------------------------------------------------------------------------------------------------------------------------
  System                99.99    694.99   1331.77      17.844      2197.252      3788.684       144.146        17.050        87.427
  
  
  ********************
  Link Flow Summary
  ********************
  
  -----------------------------------------------------------------------------
                                 Maximum  Time of Max   Maximum    Max/    Max/
                                  |Flow|   Occurrence   |Veloc|    Full    Full
  Link                 Type          LPS  days hr:min     m/sec    Flow   Depth
  -----------------------------------------------------------------------------
  WS02003066WSF200     CONDUIT    938.99     0  03:04      3.00    0.16    0.32
  WS02006287WS02006284 CONDUIT    678.82     0  03:02      2.38    0.31    0.39
  WS02006284WS02006280 CONDUIT    680.04     0  03:02      2.62    0.28    0.37
  WS02006280WS02006229 CONDUIT    680.05     0  03:02      3.90    0.15    0.50
  WS02006229WS02006228 CONDUIT    914.39     0  03:02      1.82    3.03    1.00
  WS02006256WS02006235 CONDUIT    261.51     0  06:42      3.70    2.77    1.00
  WS02006253WS02006251 CONDUIT    144.29     0  03:01      0.64    0.43    1.00
  WS02006252WS02006251 CONDUIT    399.51     0  07:10      3.18    1.47    1.00
  WS02006251WS02006249 CONDUIT    372.17     0  07:10      1.09    1.07    1.00
  WS02006249WS02006248 CONDUIT    354.12     0  07:10      1.10    1.94    1.00
  WS02006248WS02006247 CONDUIT    337.22     0  07:10      1.02    0.73    1.00
  WS02006247WS02006245 CONDUIT    315.66     0  07:14      0.94    2.50    1.00
  WS02006245WS02006243 CONDUIT    315.24     0  07:14      1.05    0.93    1.00
  WS02006243WS02006242 CONDUIT    314.90     0  07:14      0.90    0.67    1.00
  WS02006242WS02006240 CONDUIT    314.75     0  07:14      0.82    1.25    1.00
  WS02006240WS02006239 CONDUIT    314.74     0  07:14      0.93    0.99    1.00
  WS02006239WS02006238 CONDUIT    314.78     0  07:14      0.82    1.01    1.00
  WS02006238WS02006235 CONDUIT    314.67     0  07:14      0.82    0.70    1.00
  WS02006235WS02006234 CONDUIT    512.33     0  07:14      1.33    5.41    1.00
  WS02006234WS02006232 CONDUIT    512.27     0  07:14      1.33    1.04    1.00
  WS02006232WS02006231 CONDUIT    512.38     0  07:14      1.33    1.07    1.00
  WS02006231WS02006230 CONDUIT    513.28     0  07:14      1.35    7.79    1.00
  WS02006230WS02006229 CONDUIT    524.16     0  07:15      1.36   11.66    1.00
  WS02006228WS02006109 CONDUIT    914.21     0  03:02      1.82    3.99    1.00
  WS02006116WS02004401 CONDUIT    939.82     0  03:02      1.20    1.30    1.00
  WS02006115WS02006116 CONDUIT    939.82     0  03:02      1.20    1.21    1.00
  WS02006113WS02006111 CONDUIT    915.96     0  03:02      2.60    1.10    1.00
  WS02006112WS02006115 CONDUIT    939.45     0  03:02      1.20    0.55    1.00
  WS02006111WS02006112 CONDUIT    916.48     0  03:02      1.82    0.44    1.00
  WS02006110WS02006113 CONDUIT    915.78     0  03:02      1.82    0.83    1.00
  WS02006109WS02006110 CONDUIT    915.69     0  03:02      1.82    1.76    1.00
  WS02004411WS02004412 CONDUIT    937.58     0  03:03      1.24    1.33    0.92
  WS02004401WS02004402 CONDUIT    939.82     0  03:02      1.20    1.13    1.00
  WS02004413WS02003067 CONDUIT    938.20     0  03:04      1.55    0.40    0.72
  WS02004412WS02004413 CONDUIT    938.09     0  03:04      1.22    0.63    0.95
  WS02004410WS02004411 CONDUIT    937.92     0  03:03      1.23    1.28    0.94
  WS02004409WS02004410 CONDUIT    938.60     0  03:03      1.22    1.21    0.95
  WS02004407WS02004409 CONDUIT    939.55     0  03:03      1.68    0.33    0.68
  WS02004406WS02004407 CONDUIT    940.11     0  03:02      1.60    0.42    0.70
  WS02004405WS02004406 CONDUIT    940.51     0  03:02      1.20    1.86    1.00
  WS02004404WS02004405 CONDUIT    941.16     0  03:02      1.20    9.22    1.00
  WS02004403WS02004404 CONDUIT    940.64     0  03:02      1.20    0.68    1.00
  WS02004402WS02004403 CONDUIT    940.22     0  03:02      1.20    1.35    1.00
  WS02004139WS02001211 CONDUIT    384.62     0  03:17      0.90    0.49    0.64
  WS02004138WS02004139 CONDUIT    394.13     0  00:00      3.62    0.08    0.47
  WS02003067WS02003066 CONDUIT    938.79     0  03:04      1.65    0.30    0.50
  WS02001213WS02003059 CONDUIT    405.63     0  03:17      0.89    0.67    0.87
  WS02001212WS02001213 CONDUIT    400.62     0  03:16      1.32    0.62    0.56
  WS02001211WS02001212 CONDUIT    396.63     0  03:16      0.78    0.30    0.71
  WS02003072WS02003073 CONDUIT   1329.65     0  03:06      1.96    2.87    0.58
  WS02003069WS02003072 CONDUIT   1329.40     0  03:05      1.82    0.64    0.62
  WS02003060WS02003069 CONDUIT   1329.36     0  03:05      2.03    0.52    0.56
  WS02003059WS02003060 CONDUIT    412.19     0  03:16      0.95    0.27    0.77
  HS02004901HS02004770 CONDUIT     37.27     0  03:01      0.10    0.14    0.53
  HS02004876HS02004881 CONDUIT    127.62     0  03:01      1.21    1.36    0.15
  HS02004870HS02004876 CONDUIT    103.08     0  03:01      0.82    0.07    0.18
  HS02004842HS02004848 CONDUIT     16.84     0  03:01      0.07    0.01    0.33
  HS02004837HS02004842 CONDUIT     17.92     0  03:03      0.42    0.01    0.35
  HS02004830HS02004837 CONDUIT     64.65     0  03:01      0.67    0.06    0.14
  HS02004824HS02004830 CONDUIT     64.11     0  03:02      0.62    0.08    0.16
  HS02004817HS02004824 CONDUIT    123.87     0  03:01      0.31    0.06    0.58
  HS02004770HS02004777 CONDUIT    185.00     0  03:01      0.49    0.34    0.54
  HS02004799HS02004480 CONDUIT    444.36     0  03:01      1.07    0.56    0.60
  HS02004792HS02004799 CONDUIT    408.50     0  03:01      1.20    0.25    0.49
  HS02004788HS02004792 CONDUIT    232.93     0  03:02      1.28    0.15    0.26
  HS02004785HS02004788 CONDUIT    181.76     0  03:02      0.91    1.37    0.29
  HS02004777HS02004785 CONDUIT    182.06     0  03:01      0.57    0.22    0.45
  HS02004480HS02004478 CONDUIT    517.31     0  03:01      1.55    2.18    0.48
  HS02004479HS02004480 CONDUIT     77.31     0  03:02      0.30    0.07    0.57
  HS02004862HS02004870 CONDUIT     79.02     0  03:01      0.80    0.09    0.14
  HS02004848HS02004852 CONDUIT     37.85     0  03:01      0.53    0.04    0.10
  HS02004856HS02004862 CONDUIT     54.76     0  03:01      0.59    0.05    0.13
  HS02004852HS02004856 CONDUIT     37.75     0  03:02      0.34    0.04    0.16
  HS02004802HS02004478 CONDUIT    170.16     0  03:04      0.54    0.15    0.48
  HS02004478WS02006287 CONDUIT    677.56     0  03:02      2.11    0.19    0.36
  HS02004817HS02004807 CONDUIT    128.15     0  03:04      0.25    0.08    0.75
  HS02004807HS02004802 CONDUIT    165.32     0  03:04      0.46    0.32    0.53
  YS02001759YS02001757 CONDUIT    621.69     0  02:43      0.79    0.44    1.00
  YS02001762YS02001759 CONDUIT    314.22     0  02:43      0.40    0.36    1.00
  YS02001765YS02001762 CONDUIT    313.76     0  02:43      0.40    0.29    1.00
  YS02001770YS02001767 CONDUIT    312.81     0  02:43      0.40    1.24    1.00
  YS02001774YS02001770 CONDUIT    699.59     0  03:16      0.89    0.45    1.00
  YS02001779YS02001774 CONDUIT    699.64     0  03:16      0.89    0.35    1.00
  YS02001649YS02001757 CONDUIT    871.80     0  02:40      1.11    0.53    1.00
  YS02001767YS02001765 CONDUIT    313.57     0  02:43      0.40    0.39    1.00
  YS02006561YS02001783 CONDUIT    983.73     0  03:00      2.14    0.51    1.00
  YS02001783YS02001784 CONDUIT    983.68     0  03:00      1.96    1.36    1.00
  YS02001784YS02001785 CONDUIT    984.50     0  03:00      1.96    2.29    1.00
  YS02001788YS02001790 CONDUIT    984.91     0  03:00      2.43    0.73    1.00
  YS02001790YS02001791 CONDUIT    984.77     0  03:00      2.87    1.07    1.00
  YS02001791YS02001793 CONDUIT    985.28     0  03:01      5.76    0.42    1.00
  YS02001910YS02001907 CONDUIT    582.12     0  03:01      0.74    0.33    1.00
  YS02001786YS02001788 CONDUIT    984.62     0  02:59      2.31    1.90    1.00
  YS02001915YS02001910 CONDUIT    581.98     0  03:00      0.74    0.29    1.00
  YS02001918YS02001915 CONDUIT    252.65     0  03:46      0.44    0.14    1.00
  YS02001923YS02001920 CONDUIT    249.31     0  02:47      0.75    0.11    1.00
  YS02001926YS02001923 CONDUIT    232.17     0  02:47      0.85    0.33    0.94
  YS02001929YS02001926 CONDUIT    203.55     0  02:47      0.92    0.10    0.83
  YS02001920YS02001918 CONDUIT    252.22     0  02:47      0.72    0.24    1.00
  YS02001629YS02163301 CONDUIT    202.10     0  02:31      0.26    0.25    1.00
  YS02001619YS02001622 CONDUIT    381.77     0  03:01      0.59    0.56    1.00
  YS02001622YS02001625 CONDUIT    380.87     0  03:01      0.48    0.20    1.00
  YS02001625YS02001629 CONDUIT    196.43     0  02:39      0.25    0.09    1.00
  YS02163301YS02001633 CONDUIT    205.01     0  02:32      0.26    0.19    1.00
  YS02163601YS02164001 CONDUIT    412.56     0  02:39      0.53    0.37    1.00
  YS02164001YS02001641 CONDUIT    412.09     0  02:39      0.52    0.56    1.00
  YS02001641YS02001644 CONDUIT    411.81     0  02:39      0.52    1.33    1.00
  YS02001647YS02001649 CONDUIT    807.59     0  03:18      1.03    0.43    1.00
  YS02006553YS02006556 CONDUIT    709.20     0  03:47      0.90    0.61    1.00
  YS02006556YS02006558 CONDUIT    709.26     0  03:47      0.90    0.56    1.00
  YSB6556YSB1171       CONDUIT     42.85     0  03:02      0.13    0.04    0.82
  YS02001907YS02006553 CONDUIT    708.73     0  03:47      0.79    0.83    1.00
  YS02006558YS02006561 CONDUIT    983.79     0  03:00      3.48    2.17    1.00
  YS02001633YS02163601 CONDUIT    412.58     0  02:39      0.53    0.43    1.00
  YS02001644YS02001647 CONDUIT    807.71     0  03:18      1.03    0.47    1.00
  YS02001745YS02001748 CONDUIT    594.92     0  02:32      1.45    0.23    0.98
  YS02001748YS02001751 CONDUIT    443.87     0  03:01      1.03    0.22    1.00
  YS02001751YS02001754 CONDUIT    443.89     0  03:01      0.88    0.21    1.00
  YS02001754YS02001757 CONDUIT    444.26     0  03:01      0.57    0.18    1.00
  YS02001882YS02001884 CONDUIT     29.74     0  02:37      0.12    0.03    1.00
  YS02001884YS02001887 CONDUIT     59.88     0  02:37      0.08    0.08    1.00
  YS02001890YS02001895 CONDUIT    518.98     0  03:04      0.66    0.24    1.00
  YS02001895YS02001898 CONDUIT    518.27     0  03:03      0.66    0.90    1.00
  YS02001898YS02001901 CONDUIT    518.59     0  03:04      0.66    0.33    1.00
  YS02001901YS02001904 CONDUIT    518.36     0  02:57      0.66    0.80    1.00
  YS02001904YS02001907 CONDUIT    518.31     0  03:03      0.66    0.18    1.00
  YS02001887YS02001890 CONDUIT    680.10     0  03:01      0.87    1.16    1.00
  YS02001652YS02001649 CONDUIT    500.88     0  03:01      0.64    0.25    1.00
  YS02001655YS02001652 CONDUIT    500.38     0  03:01      0.94    0.24    1.00
  YS02001658YS02001655 CONDUIT    500.78     0  03:01      1.18    0.21    1.00
  YS02001661YS02001658 CONDUIT    583.89     0  02:29      1.52    0.23    1.00
  YS02001664YS02001661 CONDUIT    638.67     0  02:53      1.43    0.20    0.77
  YSB1154YSB6556       CONDUIT     43.29     0  03:01      0.18    0.08    0.73
  YSB1174YSB1171       CONDUIT     36.63     0  03:01      0.11    0.06    0.85
  YSB1171HS02004479    CONDUIT     75.52     0  03:02      0.54    0.05    0.68
  HS02004881HS02006253 CONDUIT    140.45     0  03:01      2.33    0.03    0.54
  YS02001793JiankangQianchi CONDUIT   1083.93     0  02:05     16.67    0.09    1.00
  YS02001757CaochengTiaoxuchi CONDUIT   1678.62     0  02:40      2.17    0.74    1.00
  WSF200WS02003060     CONDUIT    939.40     0  03:04      1.93    0.21    0.45
  1                    CONDUIT   1331.77     0  03:07      3.59    0.46    0.48
  CC-Pump-1            PUMP       200.00     0  05:40              1.00
  CC-Pump-2            PUMP       199.83     0  07:10              1.00
  JK-Pump-1            PUMP       300.00     0  02:10              1.00
  JK-Pump-2            PUMP       683.00     0  02:10              1.00
  XR-Pump-1            PUMP        95.00     0  00:00              1.00
  XR-Pump-2            PUMP        95.00     0  00:00              1.00
  XR-Pump-3            PUMP        95.00     0  00:00              1.00
  XR-Pump-4            PUMP        95.00     0  00:00              1.00
  
  
  ***************************
  Flow Classification Summary
  ***************************
  
  -------------------------------------------------------------------------------------
                      Adjusted    ---------- Fraction of Time in Flow Class ---------- 
                       /Actual         Up    Down  Sub   Sup   Up    Down  Norm  Inlet 
  Conduit               Length    Dry  Dry   Dry   Crit  Crit  Crit  Crit  Ltd   Ctrl  
  -------------------------------------------------------------------------------------
  WS02003066WSF200        1.00   0.01  0.03  0.00  0.00  0.96  0.00  0.00  0.72  0.00
  WS02006287WS02006284    1.00   0.04  0.02  0.00  0.60  0.34  0.00  0.00  0.65  0.00
  WS02006284WS02006280    1.00   0.05  0.00  0.00  0.00  0.00  0.00  0.95  0.00  0.00
  WS02006280WS02006229    1.00   0.05  0.00  0.00  0.01  0.03  0.00  0.91  0.00  0.00
  WS02006229WS02006228    1.00   0.00  0.00  0.00  1.00  0.00  0.00  0.00  0.00  0.00
  WS02006256WS02006235    1.00   0.01  0.00  0.00  0.99  0.00  0.00  0.00  0.00  0.00
  WS02006253WS02006251    1.00   0.02  0.02  0.00  0.95  0.00  0.01  0.00  0.00  0.00
  WS02006252WS02006251    1.00   0.23  0.01  0.00  0.05  0.00  0.71  0.00  0.00  0.00
  WS02006251WS02006249    1.00   0.00  0.00  0.00  1.00  0.00  0.00  0.00  0.46  0.00
  WS02006249WS02006248    1.00   0.00  0.01  0.00  0.80  0.00  0.20  0.00  0.00  0.00
  WS02006248WS02006247    1.00   0.01  0.00  0.00  0.98  0.00  0.00  0.01  0.27  0.00
  WS02006247WS02006245    1.00   0.01  0.00  0.00  0.97  0.00  0.00  0.02  0.00  0.00
  WS02006245WS02006243    1.00   0.01  0.00  0.00  0.91  0.00  0.00  0.08  0.02  0.00
  WS02006243WS02006242    1.00   0.01  0.00  0.00  0.99  0.00  0.00  0.00  0.30  0.00
  WS02006242WS02006240    1.00   0.01  0.00  0.00  0.99  0.00  0.01  0.00  0.00  0.00
  WS02006240WS02006239    1.00   0.01  0.00  0.00  0.93  0.00  0.00  0.07  0.02  0.00
  WS02006239WS02006238    1.00   0.01  0.00  0.00  0.99  0.00  0.00  0.00  0.10  0.00
  WS02006238WS02006235    1.00   0.01  0.00  0.00  0.99  0.00  0.00  0.00  0.00  0.00
  WS02006235WS02006234    1.00   0.01  0.00  0.00  0.94  0.00  0.05  0.00  0.00  0.00
  WS02006234WS02006232    1.00   0.01  0.00  0.00  0.99  0.00  0.00  0.00  0.06  0.00
  WS02006232WS02006231    1.00   0.01  0.00  0.00  0.99  0.00  0.00  0.00  0.00  0.00
  WS02006231WS02006230    1.00   0.01  0.00  0.00  0.53  0.00  0.46  0.00  0.00  0.00
  WS02006230WS02006229    1.00   0.00  0.00  0.00  0.99  0.00  0.00  0.01  0.00  0.00
  WS02006228WS02006109    1.00   0.00  0.00  0.00  1.00  0.00  0.00  0.00  0.00  0.00
  WS02006116WS02004401    1.00   0.02  0.00  0.00  0.98  0.00  0.00  0.00  0.00  0.00
  WS02006115WS02006116    1.00   0.02  0.00  0.00  0.98  0.00  0.00  0.00  0.00  0.00
  WS02006113WS02006111    1.00   0.01  0.00  0.00  0.05  0.94  0.00  0.00  0.25  0.00
  WS02006112WS02006115    1.00   0.02  0.00  0.00  0.98  0.00  0.00  0.00  0.00  0.00
  WS02006111WS02006112    1.00   0.02  0.00  0.00  0.98  0.00  0.00  0.00  0.89  0.00
  WS02006110WS02006113    1.00   0.00  0.01  0.00  0.99  0.00  0.00  0.00  0.00  0.00
  WS02006109WS02006110    1.00   0.00  0.00  0.00  0.99  0.00  0.00  0.00  0.00  0.00
  WS02004411WS02004412    1.00   0.03  0.00  0.00  0.97  0.00  0.00  0.00  0.00  0.00
  WS02004401WS02004402    1.00   0.02  0.00  0.00  0.98  0.00  0.00  0.00  0.00  0.00
  WS02004413WS02003067    1.00   0.03  0.00  0.00  0.00  0.00  0.96  0.00  0.00  0.00
  WS02004412WS02004413    1.00   0.03  0.00  0.00  0.97  0.00  0.00  0.00  0.00  0.00
  WS02004410WS02004411    1.00   0.03  0.00  0.00  0.97  0.00  0.00  0.00  0.00  0.00
  WS02004409WS02004410    1.00   0.03  0.00  0.00  0.97  0.00  0.00  0.00  0.00  0.00
  WS02004407WS02004409    1.00   0.03  0.00  0.00  0.97  0.00  0.00  0.00  0.93  0.00
  WS02004406WS02004407    1.00   0.00  0.03  0.00  0.97  0.00  0.00  0.00  0.00  0.00
  WS02004405WS02004406    1.00   0.00  0.00  0.00  1.00  0.00  0.00  0.00  0.03  0.00
  WS02004404WS02004405    1.00   0.00  0.00  0.00  1.00  0.00  0.00  0.00  0.00  0.00
  WS02004403WS02004404    1.00   0.00  0.02  0.00  0.98  0.00  0.00  0.00  0.00  0.00
  WS02004402WS02004403    1.00   0.02  0.00  0.00  0.98  0.00  0.00  0.00  0.00  0.00
  WS02004139WS02001211    1.00   0.00  0.00  0.00  1.00  0.00  0.00  0.00  0.00  0.00
  WS02004138WS02004139    1.00   0.00  0.00  0.00  1.00  0.00  0.00  0.00  1.00  0.00
  WS02003067WS02003066    1.00   0.04  0.00  0.00  0.96  0.00  0.00  0.00  0.00  0.00
  WS02001213WS02003059    1.00   0.00  0.00  0.00  1.00  0.00  0.00  0.00  0.00  0.00
  WS02001212WS02001213    1.00   0.00  0.00  0.00  0.89  0.00  0.11  0.00  0.00  0.00
  WS02001211WS02001212    1.00   0.00  0.00  0.00  1.00  0.00  0.00  0.00  0.00  0.00
  WS02003072WS02003073    1.00   0.00  0.00  0.00  0.00  0.00  0.00  1.00  0.00  0.00
  WS02003069WS02003072    1.00   0.00  0.00  0.00  1.00  0.00  0.00  0.00  0.12  0.00
  WS02003060WS02003069    1.00   0.00  0.00  0.00  0.99  0.01  0.00  0.00  0.09  0.00
  WS02003059WS02003060    1.00   0.00  0.00  0.00  1.00  0.00  0.00  0.00  0.00  0.00
  HS02004901HS02004770    1.00   0.05  0.00  0.00  0.95  0.00  0.00  0.00  0.00  0.00
  HS02004876HS02004881    1.00   0.01  0.00  0.00  0.89  0.10  0.00  0.00  0.00  0.00
  HS02004870HS02004876    1.00   0.00  0.00  0.00  0.99  0.00  0.00  0.00  0.95  0.00
  HS02004842HS02004848    1.00   0.00  0.05  0.00  0.95  0.00  0.00  0.00  0.54  0.00
  HS02004837HS02004842    1.00   0.00  0.00  0.00  1.00  0.00  0.00  0.00  0.11  0.00
  HS02004830HS02004837    1.00   0.00  0.00  0.00  1.00  0.00  0.00  0.00  0.99  0.00
  HS02004824HS02004830    1.00   0.00  0.00  0.00  1.00  0.00  0.00  0.00  0.01  0.00
  HS02004817HS02004824    1.00   0.00  0.00  0.00  1.00  0.00  0.00  0.00  0.97  0.00
  HS02004770HS02004777    1.00   0.00  0.05  0.00  0.95  0.00  0.00  0.00  0.03  0.00
  HS02004799HS02004480    1.00   0.00  0.01  0.00  0.94  0.00  0.05  0.00  0.00  0.00
  HS02004792HS02004799    1.00   0.00  0.00  0.00  1.00  0.00  0.00  0.00  0.98  0.00
  HS02004788HS02004792    1.00   0.00  0.00  0.00  1.00  0.00  0.00  0.00  0.98  0.00
  HS02004785HS02004788    1.00   0.00  0.00  0.00  1.00  0.00  0.00  0.00  0.00  0.00
  HS02004777HS02004785    1.00   0.00  0.00  0.00  1.00  0.00  0.00  0.00  0.12  0.00
  HS02004480HS02004478    1.00   0.05  0.00  0.00  0.65  0.00  0.00  0.30  0.00  0.00
  HS02004479HS02004480    1.00   0.01  0.00  0.00  0.99  0.00  0.00  0.00  0.12  0.00
  HS02004862HS02004870    1.00   0.00  0.00  0.00  1.00  0.00  0.00  0.00  0.04  0.00
  HS02004848HS02004852    1.00   0.05  0.00  0.00  0.95  0.00  0.00  0.00  0.64  0.00
  HS02004856HS02004862    1.00   0.00  0.06  0.00  0.94  0.00  0.00  0.00  0.83  0.00
  HS02004852HS02004856    1.00   0.05  0.00  0.00  0.95  0.00  0.00  0.00  0.80  0.00
  HS02004802HS02004478    1.00   0.05  0.00  0.00  0.95  0.00  0.00  0.00  0.02  0.00
  HS02004478WS02006287    1.00   0.06  0.00  0.00  0.71  0.23  0.00  0.00  0.65  0.00
  HS02004817HS02004807    1.00   0.00  0.05  0.00  0.95  0.00  0.00  0.00  0.01  0.00
  HS02004807HS02004802    1.00   0.05  0.00  0.00  0.95  0.00  0.00  0.01  0.00  0.00
  YS02001759YS02001757    1.00   0.00  0.00  0.00  1.00  0.00  0.00  0.00  0.16  0.00
  YS02001762YS02001759    1.00   0.00  0.00  0.00  1.00  0.00  0.00  0.00  0.03  0.00
  YS02001765YS02001762    1.00   0.00  0.00  0.00  1.00  0.00  0.00  0.00  0.14  0.00
  YS02001770YS02001767    1.00   0.00  0.00  0.00  1.00  0.00  0.00  0.00  0.00  0.00
  YS02001774YS02001770    1.00   0.00  0.05  0.00  0.95  0.00  0.00  0.00  0.03  0.00
  YS02001779YS02001774    1.00   0.00  0.00  0.00  1.00  0.00  0.00  0.00  0.19  0.00
  YS02001649YS02001757    1.00   0.00  0.00  0.00  1.00  0.00  0.00  0.00  0.16  0.00
  YS02001767YS02001765    1.00   0.00  0.00  0.00  1.00  0.00  0.00  0.00  0.00  0.00
  YS02006561YS02001783    1.00   0.07  0.00  0.00  0.32  0.61  0.00  0.00  0.47  0.00
  YS02001783YS02001784    1.00   0.00  0.07  0.00  0.93  0.00  0.00  0.00  0.01  0.00
  YS02001784YS02001785    1.00   0.00  0.00  0.00  1.00  0.00  0.00  0.00  0.18  0.00
  YS02001788YS02001790    1.00   0.00  0.00  0.00  0.40  0.60  0.00  0.00  0.35  0.00
  YS02001790YS02001791    1.00   0.00  0.00  0.00  0.34  0.66  0.00  0.00  0.45  0.00
  YS02001791YS02001793    1.00   0.00  0.00  0.00  0.36  0.64  0.00  0.00  0.03  0.00
  YS02001910YS02001907    1.00   0.00  0.00  0.00  0.99  0.00  0.00  0.01  0.12  0.00
  YS02001786YS02001788    1.00   0.00  0.00  0.00  0.39  0.61  0.00  0.00  0.00  0.00
  YS02001915YS02001910    1.00   0.00  0.00  0.00  0.99  0.01  0.00  0.00  0.16  0.00
  YS02001918YS02001915    1.00   0.00  0.00  0.00  0.99  0.01  0.00  0.00  0.53  0.00
  YS02001923YS02001920    1.00   0.00  0.00  0.00  1.00  0.00  0.00  0.00  0.82  0.00
  YS02001926YS02001923    1.00   0.00  0.03  0.00  0.15  0.00  0.81  0.00  0.00  0.00
  YS02001929YS02001926    1.00   0.00  0.05  0.00  0.95  0.00  0.00  0.00  0.74  0.00
  YS02001920YS02001918    1.00   0.00  0.00  0.00  1.00  0.00  0.00  0.00  0.00  0.00
  YS02001629YS02163301    1.00   0.06  0.00  0.00  0.94  0.00  0.00  0.00  0.00  0.00
  YS02001619YS02001622    1.00   0.05  0.00  0.00  0.95  0.00  0.00  0.00  0.00  0.00
  YS02001622YS02001625    1.00   0.05  0.00  0.00  0.95  0.00  0.00  0.00  0.05  0.00
  YS02001625YS02001629    1.00   0.05  0.02  0.00  0.91  0.00  0.02  0.00  0.00  0.00
  YS02163301YS02001633    1.00   0.00  0.06  0.00  0.94  0.00  0.00  0.00  0.00  0.00
  YS02163601YS02164001    1.00   0.00  0.03  0.00  0.97  0.00  0.00  0.00  0.00  0.00
  YS02164001YS02001641    1.00   0.00  0.03  0.00  0.97  0.00  0.00  0.00  0.06  0.00
  YS02001641YS02001644    1.00   0.00  0.00  0.00  1.00  0.00  0.00  0.00  0.00  0.00
  YS02001647YS02001649    1.00   0.00  0.07  0.00  0.93  0.00  0.00  0.00  0.01  0.00
  YS02006553YS02006556    1.00   0.00  0.00  0.00  1.00  0.00  0.00  0.00  0.03  0.00
  YS02006556YS02006558    1.00   0.00  0.00  0.00  1.00  0.00  0.00  0.00  0.00  0.00
  YSB6556YSB1171          1.00   0.02  0.03  0.00  0.95  0.00  0.00  0.00  0.00  0.00
  YS02001907YS02006553    1.00   0.00  0.01  0.00  0.99  0.00  0.00  0.00  0.00  0.00
  YS02006558YS02006561    1.00   0.07  0.00  0.00  0.16  0.77  0.00  0.00  0.47  0.00
  YS02001633YS02163601    1.00   0.00  0.00  0.00  1.00  0.00  0.00  0.00  0.15  0.00
  YS02001644YS02001647    1.00   0.00  0.07  0.00  0.93  0.00  0.00  0.00  0.00  0.00
  YS02001745YS02001748    1.00   0.00  0.00  0.00  0.88  0.01  0.00  0.12  0.04  0.00
  YS02001748YS02001751    1.00   0.00  0.00  0.00  0.96  0.04  0.00  0.00  0.15  0.00
  YS02001751YS02001754    1.00   0.00  0.00  0.00  0.92  0.00  0.00  0.08  0.02  0.00
  YS02001754YS02001757    1.00   0.00  0.00  0.00  1.00  0.00  0.00  0.00  0.18  0.00
  YS02001882YS02001884    1.00   0.06  0.00  0.00  0.94  0.00  0.00  0.00  0.00  0.00
  YS02001884YS02001887    1.00   0.03  0.02  0.00  0.96  0.00  0.00  0.00  0.00  0.00
  YS02001890YS02001895    1.00   0.00  0.06  0.00  0.94  0.00  0.00  0.00  0.00  0.00
  YS02001895YS02001898    1.00   0.06  0.00  0.00  0.93  0.00  0.01  0.00  0.00  0.00
  YS02001898YS02001901    1.00   0.06  0.00  0.00  0.94  0.00  0.00  0.00  0.01  0.00
  YS02001901YS02001904    1.00   0.06  0.00  0.00  0.94  0.00  0.00  0.00  0.00  0.00
  YS02001904YS02001907    1.00   0.00  0.06  0.00  0.94  0.00  0.00  0.00  0.00  0.00
  YS02001887YS02001890    1.00   0.00  0.00  0.00  0.99  0.00  0.01  0.00  0.00  0.00
  YS02001652YS02001649    1.00   0.00  0.00  0.00  1.00  0.00  0.00  0.00  0.17  0.00
  YS02001655YS02001652    1.00   0.00  0.00  0.00  0.92  0.00  0.00  0.07  0.02  0.00
  YS02001658YS02001655    1.00   0.00  0.05  0.00  0.91  0.04  0.00  0.00  0.10  0.00
  YS02001661YS02001658    1.00   0.05  0.00  0.00  0.87  0.07  0.00  0.00  0.11  0.00
  YS02001664YS02001661    1.00   0.05  0.00  0.00  0.90  0.06  0.00  0.00  0.20  0.00
  YSB1154YSB6556          1.00   0.05  0.00  0.00  0.95  0.00  0.00  0.00  0.02  0.00
  YSB1174YSB1171          1.00   0.02  0.02  0.00  0.96  0.00  0.00  0.00  0.00  0.00
  YSB1171HS02004479       1.00   0.01  0.00  0.00  0.98  0.00  0.00  0.01  0.10  0.00
  HS02004881HS02006253    1.00   0.02  0.00  0.00  0.33  0.02  0.00  0.63  0.19  0.00
  YS02001793JiankangQianchi    1.00   0.00  0.00  0.00  0.60  0.40  0.00  0.00  0.41  0.00
  YS02001757CaochengTiaoxuchi    1.00   0.00  0.09  0.00  0.91  0.00  0.00  0.00  0.00  0.00
  WSF200WS02003060        1.00   0.00  0.01  0.00  0.97  0.03  0.00  0.00  0.60  0.00
  1                       1.00   0.00  0.00  0.00  0.00  1.00  0.00  0.00  0.51  0.00
  
  
  *************************
  Conduit Surcharge Summary
  *************************
  
  ----------------------------------------------------------------------------
                                                           Hours        Hours 
                         --------- Hours Full --------   Above Full   Capacity
  Conduit                Both Ends  Upstream  Dnstream   Normal Flow   Limited
  ----------------------------------------------------------------------------
  WS02006229WS02006228        2.00      2.07      2.00      3.36         2.00
  WS02006256WS02006235        5.18      5.18      6.92      4.40         0.01
  WS02006253WS02006251        0.40      0.40      0.41      0.01         0.01
  WS02006252WS02006251        0.24      0.24      0.41      0.16         0.01
  WS02006251WS02006249        0.40      0.40      0.43      0.03         0.02
  WS02006249WS02006248        0.42      0.42      0.43      0.55         0.01
  WS02006248WS02006247        0.43      0.43      0.49      0.01         0.01
  WS02006247WS02006245        0.50      0.50      0.50      1.17         0.35
  WS02006245WS02006243        0.51      0.51      0.57      0.01         0.01
  WS02006243WS02006242        0.58      0.58      0.75      0.01         0.01
  WS02006242WS02006240        0.73      0.73      0.81      0.17         0.01
  WS02006240WS02006239        0.75      0.75      0.83      0.01         0.02
  WS02006239WS02006238        0.96      0.96      1.16      0.01         0.03
  WS02006238WS02006235        1.15      1.15      1.33      0.01         0.01
  WS02006235WS02006234        0.89      0.89      1.05      5.07         0.01
  WS02006234WS02006232        0.96      0.96      1.64      0.08         0.09
  WS02006232WS02006231        0.69      0.69      1.64      0.12         0.01
  WS02006231WS02006230        0.55      0.55      0.72      5.34         0.01
  WS02006230WS02006229        2.56      2.97      2.56      5.76         2.56
[...]
  YS02001770YS02001767        5.69      5.69      5.69      0.54         0.49
  YS02001774YS02001770        5.68      5.68      5.74      0.01         0.01
  YS02001779YS02001774        5.56      5.56      5.74      0.01         0.01
  YS02001649YS02001757        5.76      5.76      5.86      0.01         0.01
  YS02001767YS02001765        5.69      5.69      5.72      0.01         0.01
  YS02006561YS02001783        1.00      1.00      1.28      0.01         0.01
  YS02001783YS02001784        1.26      1.28      1.26      1.54         1.24
  YS02001784YS02001785        1.21      1.26      1.21      2.50         1.21
  YS02001788YS02001790        1.16      1.16      2.07      0.01         0.01
  YS02001790YS02001791        2.07      2.07      2.16      1.11         1.09
  YS02001791YS02001793        2.16      2.16      2.48      0.01         0.01
  YS02001910YS02001907        1.27      1.27      1.92      0.01         0.01
  YS02001786YS02001788        1.15      1.21      1.16      2.09         1.15
  YS02001915YS02001910        1.11      1.11      1.27      0.01         0.01
  YS02001918YS02001915        0.94      0.94      1.11      0.01         0.01
  YS02001923YS02001920        0.78      0.78      0.97      0.01         0.01
  YS02001920YS02001918        0.94      0.94      0.97      0.01         0.01
  YS02001629YS02163301        5.67      5.67      5.68      0.01         0.01
  YS02001619YS02001622        5.37      5.37      5.41      0.01         0.01
  YS02001622YS02001625        5.41      5.41      5.64      0.01         0.01
  YS02001625YS02001629        5.39      5.39      5.64      0.01         0.01
  YS02163301YS02001633        5.68      5.68      5.72      0.01         0.01
  YS02163601YS02164001        5.72      5.72      5.75      0.01         0.01
  YS02164001YS02001641        5.72      5.72      5.73      0.01         0.03
  YS02001641YS02001644        5.73      5.73      5.73      1.72         1.84
  YS02001647YS02001649        5.62      5.62      5.76      0.01         0.01
  YS02006553YS02006556        1.48      1.48      1.99      0.01         0.01
  YS02006556YS02006558        1.66      1.66      2.05      0.01         0.01
  YSB6556YSB1171              0.01      0.01      0.07      0.01         0.01
  YS02001907YS02006553        2.55      2.55      2.77      0.01         0.01
  YS02006558YS02006561        1.12      1.44      1.12      2.36         1.12
  YS02001633YS02163601        5.71      5.71      5.75      0.01         0.01
  YS02001644YS02001647        5.62      5.62      5.73      0.01         0.01
  YS02001745YS02001748        0.01      0.01      5.23      0.01         0.01
  YS02001748YS02001751        5.27      5.27      5.37      0.01         0.01
  YS02001751YS02001754        5.37      5.37      5.58      0.01         0.01
  YS02001754YS02001757        5.61      5.61      5.86      0.01         0.01
  YS02001882YS02001884        1.12      1.12      1.15      0.01         0.01
  YS02001884YS02001887        1.18      1.18      1.20      0.01         0.01
  YS02001890YS02001895        1.10      1.10      1.29      0.01         0.01
  YS02001895YS02001898        1.09      1.09      1.10      0.01         0.01
  YS02001898YS02001901        1.11      1.11      1.17      0.01         0.01
  YS02001901YS02001904        1.16      1.16      1.17      0.01         0.01
  YS02001904YS02001907        1.16      1.16      2.00      0.01         0.01
  YS02001887YS02001890        1.23      1.23      1.25      0.16         0.01
  YS02001652YS02001649        5.63      5.63      5.76      0.01         0.01
  YS02001655YS02001652        5.39      5.39      5.61      0.01         0.01
  YS02001658YS02001655        5.25      5.25      5.40      0.01         0.01
  YS02001661YS02001658        0.04      0.04      5.25      0.01         0.01
  YS02001664YS02001661        0.01      0.01      1.14      0.01         0.01
  HS02004881HS02006253        0.01      0.01      0.20      0.01         0.01
  YS02001793JiankangQianchi        2.40      2.40      4.29      0.01         0.01
  YS02001757CaochengTiaoxuchi        5.11      5.11      5.86      0.01         0.01
  
  
  ***************
  Pumping Summary
  ***************
  
  ---------------------------------------------------------------------------------------------------------
                                                  Min       Avg       Max     Total     Power    % Time Off
                        Percent   Number of      Flow      Flow      Flow    Volume     Usage    Pump Curve
  Pump                 Utilized   Start-Ups       LPS       LPS       LPS  10^6 ltr     Kw-hr    Low   High
  ---------------------------------------------------------------------------------------------------------
  CC-Pump-1               29.78           6      0.00    127.59    200.00     0.960      0.65    0.0    0.0
  CC-Pump-2                4.25           1      0.00     96.77    199.83     0.120      0.13    0.0    0.0
  JK-Pump-1               59.56           5      0.00    217.09    300.00     3.723     55.10    0.0    0.0
  JK-Pump-2               53.18           4      0.00    393.36    683.00     6.492     88.79    0.0   96.3
  XR-Pump-1               97.87           2      0.00     93.38     95.00     2.565     24.65    0.0    0.0
  XR-Pump-2               95.74           3      0.00     92.72     95.00     2.451     22.21    0.0    0.0
  XR-Pump-3               93.61           3      0.00     92.70     95.00     2.394     20.91    0.0    0.0
  XR-Pump-4               93.61           3      0.00     92.70     95.00     2.394     20.91    0.0    0.0
  
  
  ***************************
  Link Pollutant Load Summary
  ***************************
  
  ------------------------------------------------------------------------------------------
                                 COD            SS            TN            TP         NH4-N
  Link                            kg            kg            kg            kg            kg
  ------------------------------------------------------------------------------------------
  WS02003066WSF200           686.217      1290.919        18.680         1.681         9.934
  WS02006287WS02006284       319.464       608.086        10.313         1.015         5.678
  WS02006284WS02006280       319.942       608.869        10.358         1.020         5.706
  WS02006280WS02006229       319.892       608.768        10.356         1.020         5.705
  WS02006229WS02006228       676.406      1273.090        18.038         1.602         9.543
  WS02006256WS02006235       220.428       408.419         4.789         0.369         2.411
  WS02006253WS02006251        59.197       116.785         1.303         0.098         0.646
  WS02006252WS02006251        95.931       175.332         2.028         0.150         1.003
  WS02006251WS02006249       150.738       284.245         3.242         0.242         1.606
  WS02006249WS02006248       138.764       260.595         2.998         0.224         1.487
  WS02006248WS02006247       138.922       260.867         3.004         0.225         1.490
  WS02006247WS02006245       139.088       261.161         3.005         0.224         1.491
  WS02006245WS02006243       139.068       261.134         3.001         0.224         1.488
  WS02006243WS02006242       139.948       262.653         3.023         0.226         1.499
  WS02006242WS02006240       142.203       266.654         3.079         0.230         1.528
  WS02006240WS02006239       145.772       273.015         3.167         0.237         1.573
  WS02006239WS02006238       149.695       279.638         3.281         0.247         1.635
  WS02006238WS02006235       152.126       283.730         3.348         0.253         1.671
  WS02006235WS02006234       358.019       666.814         7.750         0.589         3.878
  WS02006234WS02006232       357.934       666.635         7.751         0.589         3.879
  WS02006232WS02006231       357.517       665.881         7.739         0.588         3.873
  WS02006231WS02006230       357.370       665.638         7.736         0.588         3.871
  WS02006230WS02006229       357.251       665.519         7.725         0.587         3.864
  WS02006228WS02006109       675.613      1271.696        17.999         1.598         9.520
  WS02006116WS02004401       692.755      1302.642        18.854         1.696        10.026
  WS02006115WS02006116       693.228      1303.468        18.873         1.698        10.037
  WS02006113WS02006111       682.438      1282.396        18.717         1.688         9.972
  WS02006112WS02006115       693.643      1304.127        18.901         1.702        10.054
  WS02006111WS02006112       682.371      1282.357        18.707         1.687         9.965
  WS02006110WS02006113       682.719      1282.887        18.735         1.690         9.982
  WS02006109WS02006110       683.413      1284.043        18.785         1.696        10.013
  WS02004411WS02004412       688.764      1295.318        18.782         1.692         9.993
  WS02004401WS02004402       692.263      1301.819        18.828         1.693        10.010
  WS02004413WS02003067       686.777      1291.984        18.693         1.682         9.941
  WS02004412WS02004413       687.915      1293.835        18.752         1.689         9.976
  WS02004410WS02004411       689.435      1296.522        18.804         1.694        10.004
  WS02004409WS02004410       690.059      1297.613        18.828         1.696        10.018
  WS02004407WS02004409       690.530      1298.481        18.840         1.698        10.024
  WS02004406WS02004407       690.684      1298.831        18.837         1.697        10.022
  WS02004405WS02004406       691.694      1300.577        18.889         1.703        10.053
  WS02004404WS02004405       692.082      1301.366        18.878         1.701        10.044
  WS02004403WS02004404       691.297      1300.157        18.784         1.689         9.985
  WS02004402WS02004403       691.759      1300.933        18.808         1.691         9.999
  WS02004139WS02001211      1370.398      2275.763       111.177        13.570        68.528
  WS02004138WS02004139      1376.597      2286.121       111.655        13.628        68.822
  WS02003067WS02003066       686.388      1291.212        18.687         1.682         9.938
  WS02001213WS02003059      1404.060      2328.677       114.661        14.010        70.717
  WS02001212WS02001213      1412.761      2343.108       115.362        14.095        71.149
  WS02001211WS02001212      1414.856      2346.531       115.543        14.117        71.262
  WS02003072WS02003073      2190.830      3779.414       143.321        16.943        86.902
  WS02003069WS02003072      2195.948      3787.728       143.744        16.995        87.164
  WS02003060WS02003069      2198.471      3792.063       143.894        17.013        87.254
  WS02003059WS02003060      1401.143      2323.733       114.455        13.985        70.592
  HS02004901HS02004770        13.094        25.473         0.248         0.019         0.116
  HS02004876HS02004881        45.513        90.343         0.999         0.073         0.491
  HS02004870HS02004876        34.381        68.102         0.798         0.060         0.395
  HS02004842HS02004848         6.457        12.344         0.134         0.009         0.062
  HS02004837HS02004842        11.056        19.636         0.603         0.068         0.356
  HS02004830HS02004837        70.296       122.723         4.643         0.552         2.827
  HS02004824HS02004830        71.066       123.977         4.715         0.561         2.871
  HS02004817HS02004824        97.160       176.401         5.254         0.596         3.134
  HS02004770HS02004777        49.661        97.710         1.021         0.069         0.472
  HS02004799HS02004480       162.316       310.820         4.262         0.379         2.209
  HS02004792HS02004799       147.268       280.110         4.028         0.367         2.105
  HS02004788HS02004792        82.814       157.680         2.666         0.255         1.440
  HS02004785HS02004788        51.118       100.043         1.172         0.089         0.567
  HS02004777HS02004785        50.444        98.938         1.112         0.081         0.530
  HS02004480HS02004478       204.808       395.158         4.971         0.429         2.543
  HS02004479HS02004480        46.127        90.112         1.037         0.091         0.538
  HS02004862HS02004870        25.799        50.338         0.628         0.050         0.314
  HS02004848HS02004852        10.252        19.884         0.210         0.014         0.097
  HS02004856HS02004862        17.524        34.748         0.350         0.023         0.164
  HS02004852HS02004856        10.255        19.889         0.210         0.014         0.097
  HS02004802HS02004478       115.333       214.039         5.397         0.592         3.168
  HS02004478WS02006287       319.673       608.447        10.330         1.017         5.688
  HS02004817HS02004807        95.853       174.304         5.129         0.580         3.056
  HS02004807HS02004802       115.591       214.441         5.429         0.596         3.189
  YS02001759YS02001757       292.689       537.305         5.851         0.408         2.862
  YS02001762YS02001759       193.511       357.453         3.982         0.281         1.962
  YS02001765YS02001762       195.062       361.205         4.030         0.286         1.988
  YS02001770YS02001767       198.601       370.254         3.951         0.268         1.923
  YS02001774YS02001770       322.811       622.781         6.229         0.416         3.012
  YS02001779YS02001774       322.267       621.729         6.315         0.430         3.072
  YS02001649YS02001757       417.143       757.831         8.453         0.578         4.082
  YS02001767YS02001765       197.091       365.841         4.084         0.290         2.016
  YS02006561YS02001783      1019.822      1890.171        21.383         1.596        10.641
  YS02001783YS02001784      1019.780      1890.142        21.380         1.596        10.639
  YS02001784YS02001785      1027.179      1902.033        22.094         1.685        11.086
  YS02001788YS02001790      1027.889      1903.244        22.168         1.695        11.133
  YS02001790YS02001791      1029.017      1905.117        22.270         1.707        11.196
  YS02001791YS02001793      1028.986      1905.085        22.267         1.707        11.194
  YS02001910YS02001907       391.270       721.755         9.381         0.717         4.805
  YS02001786YS02001788      1027.444      1902.503        22.123         1.689        11.104
  YS02001915YS02001910       391.287       721.764         9.332         0.710         4.773
  YS02001918YS02001915       190.022       335.748         5.202         0.471         2.797
  YS02001923YS02001920       166.951       297.504         3.205         0.226         1.558
  YS02001926YS02001923       164.831       293.842         3.109         0.215         1.501
  YS02001929YS02001926       164.196       292.755         3.065         0.210         1.474
  YS02001920YS02001918       187.505       330.648         5.125         0.465         2.755
  YS02001629YS02163301        96.069       169.874         2.028         0.131         0.946
  YS02001619YS02001622       175.889       321.163         3.602         0.236         1.684
  YS02001622YS02001625       174.702       319.279         3.573         0.234         1.671
  YS02001625YS02001629        97.157       171.655         2.052         0.132         0.957
  YS02163301YS02001633        96.424       170.735         2.030         0.132         0.948
  YS02163601YS02164001       405.719       733.161         7.898         0.562         3.783
  YS02164001YS02001641       405.185       732.258         7.878         0.560         3.772
  YS02001641YS02001644       405.249       732.292         7.874         0.560         3.769
  YS02001647YS02001649       529.293       971.878        10.622         0.733         5.092
  YS02006553YS02006556       685.554      1259.913        14.751         1.130         7.425
  YS02006556YS02006558       685.702      1260.187        14.725         1.126         7.407
  YSB6556YSB1171              26.520        51.965         0.537         0.045         0.271
  YS02001907YS02006553       685.527      1259.878        14.756         1.131         7.429
  YS02006558YS02006561      1019.746      1890.010        21.381         1.596        10.640
  YS02001633YS02163601       406.433       734.266         7.879         0.558         3.767
  YS02001644YS02001647       534.569       981.665        10.701         0.739         5.128
  YS02001745YS02001748       249.941       467.318         5.493         0.380         2.730
  YS02001748YS02001751       248.131       463.848         5.547         0.391         2.773
  YS02001751YS02001754       247.218       462.334         5.539         0.391         2.771
  YS02001754YS02001757       247.961       463.443         5.703         0.414         2.878
  YS02001882YS02001884         2.937         5.074         0.060         0.005         0.030
  YS02001884YS02001887         6.993        12.384         0.138         0.011         0.069
  YS02001890YS02001895       451.288       847.067         8.307         0.625         4.052
  YS02001895YS02001898       451.184       846.965         8.302         0.624         4.049
  YS02001898YS02001901       451.037       846.727         8.299         0.624         4.047
  YS02001901YS02001904       450.961       846.658         8.306         0.625         4.053
  YS02001904YS02001907       451.264       847.151         8.361         0.632         4.088
  YS02001887YS02001890       468.461       881.129         8.649         0.653         4.224
  YS02001652YS02001649       211.687       392.188         4.273         0.307         2.002
  YS02001655YS02001652       212.464       393.428         4.293         0.308         2.012
  YS02001658YS02001655       212.220       393.024         4.212         0.297         1.958
  YS02001661YS02001658       215.245       398.343         4.275         0.302         1.987
  YS02001664YS02001661       221.301       407.794         4.420         0.311         2.053
  YSB1154YSB6556              26.085        51.270         0.486         0.038         0.239
  YSB1174YSB1171              18.020        35.560         0.361         0.029         0.181
  YSB1171HS02004479           46.091        90.056         1.040         0.092         0.540
  HS02004881HS02006253        51.417       102.385         1.108         0.080         0.544
  YS02001793JiankangQianchi      1030.477      1907.510        22.328         1.713        11.229
  YS02001757CaochengTiaoxuchi       491.868       895.487        10.390         0.758         5.126
  WSF200WS02003060           686.187      1290.791        18.689         1.683         9.940
  1                         2197.252      3788.684       144.146        17.050        87.427
  CC-Pump-1                   85.159       155.724         1.790         0.132         0.883
  CC-Pump-2                   10.405        18.984         0.219         0.016         0.108
  JK-Pump-1                  259.099       485.166         5.447         0.412         2.719
  JK-Pump-2                  556.700      1046.786        11.629         0.878         5.799
  XR-Pump-1                  372.065       616.243        30.581         3.740        18.872
  XR-Pump-2                  344.528       572.185        27.938         3.410        17.220
  XR-Pump-3                  331.790       551.804        26.715         3.257        16.455
  XR-Pump-4                  331.790       551.804        26.715         3.257        16.455
  

  Analysis begun on:  Thu Jul 15 10:50:58 2021
  Analysis ended on:  Thu Jul 15 10:51:00 2021
  Total elapsed time: 00:00:02