
  EPA STORM WATER MANAGEMENT MODEL - VERSION 5.1 (Build 5.3.0.dev0)
  --------------------------------------------------------------

  WARNING 04: minimum elevation drop used for Conduit WS02004404WS02004405
  WARNING 03: negative offset ignored for Link YS02001904YS02001907
  
  *********************************************************
  NOTE: The summary statistics displayed in this report are
  based on results found at every computational time step,  
  not just on results from each reporting time step.
  *********************************************************
  
  ****************
  Analysis Options
  ****************
  Flow Units ............... LPS
  Process Models:
    Rainfall/Runoff ........ YES
    RDII ................... NO
    Snowmelt ............... NO
    Groundwater ............ NO
    Flow Routing ........... YES
    Ponding Allowed ........ NO
    Water Quality .......... YES
  Infiltration Method ...... HORTON
  Flow Routing Method ...... DYNWAVE
  Surcharge Method ......... EXTRAN
  Starting Date ............ 08/28/2015 08:00:00
  Ending Date .............. 08/28/2015 15:50:00
  Antecedent Dry Days ...... 8.0
  Report Time Step ......... 00:01:00
  Wet Time Step ............ 00:01:00
  Dry Time Step ............ 00:01:00
  Routing Time Step ........ 5.00 sec
  Variable Time Step ....... YES
  Maximum Trials ........... 8
  Number of Threads ........ 4
  Head Tolerance ........... 0.001500 m
  
  
  **************************        Volume         Depth
  Runoff Quantity Continuity     hectare-m            mm
  **************************     ---------       -------
  Total Precipitation ......         6.144        13.452
  Evaporation Loss .........         0.000         0.000
  Infiltration Loss ........         1.064         2.328
  Surface Runoff ...........         4.147         9.079
  Final Storage ............         0.935         2.047
  Continuity Error (%) .....        -0.020
  
  
  **************************           COD            SS            TN            TP         NH4-N
  Runoff Quality Continuity             kg            kg            kg            kg            kg
  **************************    ----------    ----------    ----------    ----------    ----------
  Initial Buildup ..........     41378.656     70582.865      1804.177       168.684      1032.807
  Surface Buildup ..........        21.799        40.924         2.400         0.218         1.395
  Wet Deposition ...........         0.000         0.000         0.000         0.000         0.000
  Sweeping Removal .........         0.000         0.000         0.000         0.000         0.000
  Infiltration Loss ........        97.311       184.943         1.849         0.130         0.881
  BMP Removal ..............         0.000         0.000         0.000         0.000         0.000
  Surface Runoff ...........      3769.819      7064.251        72.781         4.964        34.599
  Remaining Buildup ........     37531.916     63371.884      1731.919       163.806       998.709
  Continuity Error (%) .....         0.003         0.004         0.002         0.001         0.001
  
  
  **************************        Volume        Volume
  Flow Routing Continuity        hectare-m      10^6 ltr
  **************************     ---------     ---------
  Dry Weather Inflow .......         0.616         6.165
  Wet Weather Inflow .......         4.145        41.453
  Groundwater Inflow .......         0.000         0.000
  RDII Inflow ..............         0.000         0.000
  External Inflow ..........         0.102         1.024
  External Outflow .........         1.799        17.993
  Flooding Loss ............         2.614        26.143
  Evaporation Loss .........         0.000         0.000
  Exfiltration Loss ........         0.000         0.000
  Initial Stored Volume ....         0.076         0.761
  Final Stored Volume ......         0.641         6.410
  Continuity Error (%) .....        -2.317
  
  
  **************************           COD            SS            TN            TP         NH4-N
  Quality Routing Continuity            kg            kg            kg            kg            kg
  **************************    ----------    ----------    ----------    ----------    ----------
  Dry Weather Inflow .......      1541.201      2465.922       147.955        18.494        92.472
  Wet Weather Inflow .......      3769.108      7063.058        72.765         4.963        34.592
  Groundwater Inflow .......         0.000         0.000         0.000         0.000         0.000
  RDII Inflow ..............         0.000         0.000         0.000         0.000         0.000
  External Inflow ..........       183.418       293.469        17.608         2.201        11.005
  External Outflow .........      2237.711      3858.847       145.157        17.132        87.949
  Flooding Loss ............      2557.067      4747.153        65.432         5.668        34.319
  Exfiltration Loss ........         0.000         0.000         0.000         0.000         0.000
  Mass Reacted .............         0.000         0.000         0.000         0.000         0.000
  Initial Stored Mass ......         0.000         0.000         0.000         0.000         0.000
  Final Stored Mass ........       572.798      1000.672        24.676         2.622        14.250
  Continuity Error (%) .....         2.296         2.197         1.286         0.924         1.123
  
  
  *************************
  Highest Continuity Errors
  *************************
  Node HS02004842 (13.41%)
  Node YS02001884 (11.51%)
  Node JK-storage (-10.83%)
  Node HS02004817 (2.53%)
  Node YSB1171 (2.46%)
  
  
  ***************************
  Time-Step Critical Elements
  ***************************
  Link WS02006252WS02006251 (46.73%)
  Link WS02006280WS02006229 (14.55%)
  Link YS02001793JiankangQianchi (8.93%)
  Link WS02006238WS02006235 (7.38%)
  Link YS02006556YS02006558 (6.96%)
  
  
  ********************************
  Highest Flow Instability Indexes
  ********************************
  Link WS02006113WS02006111 (58)
  Link YS02163601YS02164001 (41)
  Link YS02163301YS02001633 (40)
  Link YS02001629YS02163301 (39)
  Link YS02164001YS02001641 (37)
  
  
  *************************
  Routing Time Step Summary
  *************************
  Minimum Time Step           :     0.50 sec
  Average Time Step           :     1.57 sec
  Maximum Time Step           :     5.00 sec
  Percent in Steady State     :     0.00
  Average Iterations per Step :     4.43
  Percent Not Converging      :    18.95
  
  
  ***************************
  Subcatchment Runoff Summary
  ***************************
  
  ------------------------------------------------------------------------------------------------------------------------------
                            Total      Total      Total      Total     Imperv       Perv      Total       Total     Peak  Runoff
                           Precip      Runon       Evap      Infil     Runoff     Runoff     Runoff      Runoff   Runoff   Coeff
  Subcatchment                 mm         mm         mm         mm         mm         mm         mm    10^6 ltr      LPS
  ------------------------------------------------------------------------------------------------------------------------------
  sub0                      13.45       0.00       0.00       0.63      12.47       0.31      12.77        0.01     3.75   0.950
  sub1                      13.45       0.00       0.00       1.12      11.88       0.36      12.24        0.08    25.66   0.910
  sub2                      13.45       0.00       0.00       4.44       8.39       0.53       8.92        0.08    25.29   0.663
  sub3                      13.45       0.00       0.00       4.56       8.35       0.42       8.77        0.20    55.75   0.652
  sub4                      13.45       0.00       0.00       1.22      11.71       0.26      11.97        0.25    65.52   0.890
  sub5                      13.45       0.00       0.00       0.68      12.41       0.26      12.67        0.14    44.76   0.942
  sub7                      13.45       0.00       0.00       0.86      12.18       0.35      12.53        0.04    14.26   0.931
  sub8                      13.45       0.00       0.00       0.87      12.17       0.34      12.50        0.08    26.26   0.930
  sub9                      13.45       0.00       0.00       0.88      12.17       0.33      12.50        0.06    19.64   0.929
  sub10                     13.45       0.00       0.00       0.78      12.29       0.29      12.58        0.14    44.00   0.935
  sub11                     13.45       0.00       0.00       0.77      12.30       0.31      12.61        0.15    48.45   0.938
  sub12                     13.45       0.00       0.00       1.25      11.66       0.50      12.16        0.11    38.10   0.904
  sub14                     13.45       0.00       0.00       0.88      12.16       0.33      12.49        0.12    38.67   0.929
  sub15                     13.45       0.00       0.00       3.37       9.35       0.66      10.01        0.17    57.01   0.744
  sub16                     13.45       0.00       0.00       3.56       8.97       0.88       9.85        0.10    37.63   0.732
  sub17                     13.45       0.00       0.00       3.47       9.10       0.84       9.94        0.09    30.67   0.739
  sub22                     13.45       0.00       0.00       4.98       7.63       0.81       8.43        0.53   184.54   0.627
  sub23                     13.45       0.00       0.00       4.17       8.43       0.81       9.24        0.44   154.22   0.687
  sub60                     13.45       0.00       0.00       1.53       9.85       0.09       9.93        3.01   438.14   0.738
  sub61                     13.45       0.00       0.00       2.16       9.95       0.12      10.07        3.11   536.45   0.749
  sub62                     13.45       0.00       0.00       0.98      10.84       0.10      10.94        3.36   552.35   0.813
  sub63                     13.45       0.00       0.00       3.77       8.69       0.14       8.83        2.67   492.63   0.656
  sub64                     13.45       0.00       0.00       1.93       9.45       0.09       9.54        2.90   416.72   0.709
  sub65                     13.45       0.00       0.00       1.67       9.61       0.08       9.70        2.98   423.09   0.721
  sub66                     13.45       0.00       0.00       3.81       8.10       0.09       8.18        2.51   380.66   0.608
  sub67                     13.45       0.00       0.00       0.95      11.38       0.13      11.51        3.55   679.52   0.856
  sub68                     13.45       0.00       0.00       1.75      10.45       0.13      10.59        3.26   586.26   0.787
  sub69                     13.45       0.00       0.00       1.83      10.79       0.19      10.98        2.57   544.72   0.816
  sub70                     13.45      11.20       0.00       7.51      14.65       0.88      15.52        3.55   494.81   0.630
  sub71                     13.45       0.00       0.00       0.99      10.58       0.09      10.67        2.52   389.24   0.793
  sub72                     13.45       0.00       0.00       0.89       8.56       0.05       8.61        1.75   189.18   0.640
  1                         13.45      15.11       0.00       1.37      16.56       4.63      21.19        4.98   484.42   0.742
  2                         13.45       0.00       0.00       3.02       3.21       1.96       5.17        2.07   340.45   0.384
  
  
  ****************************
  Subcatchment Washoff Summary
  ****************************
  
  ------------------------------------------------------------------------------------------
                                 COD            SS            TN            TP         NH4-N
  Subcatchment                    kg            kg            kg            kg            kg
  ------------------------------------------------------------------------------------------
  sub0                         2.670         5.197         0.046         0.004         0.022
  sub1                        11.241        22.423         0.210         0.015         0.101
  sub2                         6.894        13.384         0.145         0.010         0.067
  sub3                        16.924        32.573         0.350         0.024         0.161
  sub4                        25.772        51.904         0.510         0.031         0.245
  sub5                        25.778        50.682         0.460         0.035         0.223
  sub7                         5.751        11.638         0.108         0.007         0.052
  sub8                         8.581        17.755         0.171         0.010         0.082
  sub9                         7.353        15.005         0.142         0.009         0.068
  sub10                       21.202        42.223         0.389         0.028         0.188
  sub11                       20.657        41.614         0.386         0.026         0.187
  sub12                       17.724        35.094         0.321         0.024         0.155
  sub14                       15.732        31.800         0.298         0.020         0.144
  sub15                       20.231        39.321         0.389         0.028         0.182
  sub16                       13.129        25.518         0.249         0.019         0.117
  sub17                       12.049        23.208         0.222         0.017         0.105
  sub22                       62.582       119.432         1.186         0.090         0.554
  sub23                       36.683        72.439         0.776         0.051         0.357
  sub60                      243.520       456.962         4.842         0.298         2.321
  sub61                      302.151       564.434         5.627         0.386         2.710
  sub62                      313.722       596.076         6.119         0.388         2.938
  sub63                      223.275       410.850         4.468         0.314         2.075
  sub64                      305.877       553.773         5.626         0.410         2.687
  sub65                      313.037       569.066         5.795         0.415         2.772
  sub66                      176.068       321.340         3.608         0.236         1.687
  sub67                      466.222       877.505         8.365         0.616         4.045
  sub68                      332.037       626.413         6.347         0.429         3.034
  sub69                      298.258       568.561         5.590         0.393         2.674
  sub70                      502.897       962.303        10.037         0.699         4.710
  sub71                      206.745       396.330         4.242         0.246         2.030
  sub72                      164.385       293.107         3.069         0.210         1.476
  1                          349.075       671.606         7.102         0.495         3.297
  2                           42.749        75.577         1.214         0.073         0.518
  ------------------------------------------------------------------------------------------
  System                    4570.974      8595.115        88.408         6.057        41.983
  
  
  ******************
  Node Depth Summary
  ******************
  
  ---------------------------------------------------------------------------------
                                 Average  Maximum  Maximum  Time of Max    Reported
                                   Depth    Depth      HGL   Occurrence   Max Depth
  Node                 Type       Meters   Meters   Meters  days hr:min      Meters
  ---------------------------------------------------------------------------------
  WS02001211           JUNCTION     0.76     0.85     5.69     0  03:07        0.85
  WS02001212           JUNCTION     0.47     0.58     5.64     0  03:06        0.58
  WS02001213           JUNCTION     0.71     0.85     5.62     0  03:06        0.85
  WS02003069           JUNCTION     0.49     0.72     5.30     0  03:05        0.72
  WS02003072           JUNCTION     0.55     0.76     5.13     0  03:06        0.76
  WS02003073           JUNCTION     0.34     0.48     4.54     0  03:06        0.48
  WS02003060           JUNCTION     0.44     0.63     5.57     0  03:05        0.63
  WS02003066           JUNCTION     0.23     0.39     5.94     0  03:04        0.39
  WS02003059           JUNCTION     0.75     0.91     5.60     0  03:05        0.91
  WS02003067           JUNCTION     0.56     0.82     6.14     0  03:03        0.82
  WS02004401           JUNCTION     0.68     1.24     7.24     0  03:02        1.23
  WS02004402           JUNCTION     0.71     1.22     7.18     0  03:02        1.22
  WS02004403           JUNCTION     0.73     1.20     7.13     0  03:02        1.19
  WS02004404           JUNCTION     0.80     1.25     7.10     0  03:02        1.24
  WS02004406           JUNCTION     0.81     1.16     6.99     0  03:02        1.16
  WS02004409           JUNCTION     0.49     0.96     6.73     0  03:03        0.96
  WS02004410           JUNCTION     0.51     0.95     6.67     0  03:03        0.95
  WS02004411           JUNCTION     0.52     0.93     6.61     0  03:03        0.93
  WS02004412           JUNCTION     0.54     0.90     6.54     0  03:03        0.90
  WS02004413           JUNCTION     0.69     1.02     6.49     0  03:04        1.02
  WS02004405           JUNCTION     0.80     1.22     7.07     0  03:02        1.21
  WS02006109           JUNCTION     0.77     1.66     8.28     0  03:02        1.64
  WS02006110           JUNCTION     0.75     1.45     8.04     0  03:02        1.44
  WS02006111           JUNCTION     0.24     0.89     7.59     0  03:02        0.88
  WS02006112           JUNCTION     0.86     1.56     7.45     0  03:02        1.55
  WS02006113           JUNCTION     0.34     0.92     7.82     0  03:02        0.92
  WS02006115           JUNCTION     0.58     1.22     7.36     0  03:02        1.21
  WS02006116           JUNCTION     0.66     1.26     7.30     0  03:02        1.25
  WS02006230           JUNCTION     0.75     1.88     8.62     0  03:02        1.87
  WS02006231           JUNCTION     0.51     1.52     8.65     0  03:02        1.51
  WS02006232           JUNCTION     0.64     1.63     8.67     0  03:02        1.62
  WS02006234           JUNCTION     0.56     1.52     8.68     0  03:02        1.52
  WS02006235           JUNCTION     0.59     1.54     8.71     0  03:02        1.53
  WS02006238           JUNCTION     0.61     1.56     8.70     0  03:02        1.54
  WS02006240           JUNCTION     0.50     1.40     8.69     0  03:02        1.39
  WS02006242           JUNCTION     0.54     1.43     8.70     0  03:02        1.42
  WS02006243           JUNCTION     0.42     1.37     8.79     0  05:52        1.27
  WS02006245           JUNCTION     0.39     1.30     8.78     0  05:52        1.20
  WS02006247           JUNCTION     0.39     1.26     8.76     0  05:52        1.19
  WS02006248           JUNCTION     0.33     1.10     8.69     0  02:57        1.10
  WS02006249           JUNCTION     0.35     1.09     8.69     0  02:55        1.09
  WS02006239           JUNCTION     0.56     1.49     8.70     0  03:01        1.48
  WS02006251           JUNCTION     0.32     1.18     8.85     0  02:55        1.13
  WS02006252           JUNCTION     0.19     0.68     8.92     0  03:30        0.68
  WS02006253           JUNCTION     0.35     1.24     8.88     0  02:55        1.15
  WS02006256           JUNCTION     1.70     2.35     9.28     0  00:12        2.35
  WS02004138           JUNCTION     0.19     0.20     7.45     0  00:00        0.19
  WS02004139           JUNCTION     0.71     0.79     5.70     0  03:07        0.79
  WS02004407           JUNCTION     0.22     0.40     6.71     0  03:03        0.40
  WS02006228           JUNCTION     0.78     1.83     8.48     0  03:02        1.83
  WS02006229           JUNCTION     0.76     1.90     8.59     0  03:02        1.89
  WS02006280           JUNCTION     0.08     0.30     8.57     0  03:05        0.30
  WS02006284           JUNCTION     0.38     0.65     9.04     0  03:02        0.64
  WS02006287           JUNCTION     0.11     0.39     9.34     0  03:02        0.39
  WSF200               JUNCTION     0.22     0.44     5.67     0  03:04        0.44
  HS02004901           JUNCTION     0.14     0.38    10.20     0  03:01        0.37
  HS02004881           JUNCTION     0.01     0.05     9.08     0  03:01        0.05
  HS02004876           JUNCTION     0.05     0.16     9.19     0  03:01        0.16
  HS02004870           JUNCTION     0.02     0.09     9.38     0  03:01        0.09
  HS02004862           JUNCTION     0.02     0.11     9.49     0  03:01        0.11
  HS02004856           JUNCTION     0.08     0.15     9.58     0  03:01        0.15
  HS02004852           JUNCTION     0.01     0.07     9.59     0  03:02        0.07
  HS02004848           JUNCTION     0.01     0.07     9.67     0  03:01        0.07
  HS02004842           JUNCTION     0.34     0.40     9.67     0  03:01        0.40
  HS02004837           JUNCTION     0.03     0.09     9.67     0  03:01        0.09
  HS02004830           JUNCTION     0.04     0.10     9.57     0  03:01        0.10
  HS02004824           JUNCTION     0.03     0.13     9.53     0  03:02        0.13
  HS02004817           JUNCTION     0.45     0.69     9.54     0  03:02        0.69
  HS02004807           JUNCTION     0.14     0.36     9.53     0  03:02        0.36
  HS02004802           JUNCTION     0.17     0.39     9.52     0  03:02        0.39
  HS02004799           JUNCTION     0.14     0.46     9.68     0  03:01        0.46
  HS02004792           JUNCTION     0.04     0.22     9.74     0  03:01        0.21
  HS02004788           JUNCTION     0.03     0.16    10.05     0  03:02        0.16
  HS02004785           JUNCTION     0.06     0.25    10.15     0  03:02        0.25
  HS02004777           JUNCTION     0.16     0.39    10.19     0  03:01        0.39
  HS02004770           JUNCTION     0.13     0.37    10.20     0  03:01        0.36
  HS02004480           JUNCTION     0.10     0.38     9.62     0  03:01        0.38
  HS02004479           JUNCTION     0.13     0.42     9.62     0  03:01        0.42
  HS02004478           JUNCTION     0.07     0.28     9.50     0  03:01        0.28
  YS02001745           JUNCTION     0.71     0.95     8.47     0  03:01        0.95
  YS02001748           JUNCTION     1.10     2.27     9.35     0  02:32        1.38
  YS02001751           JUNCTION     1.27     2.19     9.07     0  02:32        1.58
  YS02001754           JUNCTION     1.52     2.20     8.81     0  02:32        1.84
  YS02001762           JUNCTION     1.72     2.09     8.49     0  02:32        2.05
  YS02001765           JUNCTION     1.67     2.02     8.47     0  02:32        2.00
  YS02001767           JUNCTION     1.64     1.95     8.44     0  03:00        1.95
  YS02001770           JUNCTION     1.63     1.94     8.44     0  03:00        1.93
  YS02001774           JUNCTION     1.70     1.99     8.41     0  03:00        1.98
  YS02001779           JUNCTION     1.44     1.68     8.37     0  02:32        1.68
  YS02001882           JUNCTION     0.61     1.64     8.35     0  03:00        1.63
  YS02001884           JUNCTION     0.70     1.74     8.35     0  02:58        1.73
  YS02001759           JUNCTION     1.75     2.12     8.48     0  02:32        2.08
  YS02001887           JUNCTION     0.78     1.81     8.35     0  02:58        1.81
  YS02001890           JUNCTION     0.81     1.81     8.32     0  02:50        1.81
  YS02001898           JUNCTION     0.57     1.56     8.30     0  02:53        1.56
  YS02001901           JUNCTION     0.69     1.68     8.29     0  02:59        1.67
  YS02001904           JUNCTION     0.67     1.64     8.27     0  02:59        1.63
  YS02001907           JUNCTION     1.00     1.96     8.25     0  02:50        1.96
  YS02001910           JUNCTION     0.79     1.78     8.29     0  02:52        1.77
  YS02001915           JUNCTION     0.59     1.60     8.32     0  02:51        1.59
  YS02001918           JUNCTION     0.33     1.28     8.35     0  02:51        1.26
  YS02001619           JUNCTION     1.24     1.61     8.54     0  02:32        1.48
  YS02001629           JUNCTION     1.58     1.85     8.40     0  02:32        1.84
  YS02001641           JUNCTION     1.68     1.94     8.38     0  02:40        1.93
  YS02001644           JUNCTION     1.68     1.92     8.35     0  02:39        1.92
  YS02001652           JUNCTION     1.53     2.12     8.71     0  02:25        1.86
  YS02001655           JUNCTION     1.30     2.20     9.05     0  02:25        1.64
  YS02001920           JUNCTION     0.43     1.36     8.37     0  02:51        1.34
  YS02001923           JUNCTION     0.26     1.12     8.38     0  02:51        1.10
  YS02001926           JUNCTION     0.31     0.94     8.39     0  02:51        0.94
  YS02001929           JUNCTION     0.18     0.71     8.40     0  02:51        0.71
  YS02001658           JUNCTION     1.04     2.09     9.23     0  02:30        1.40
  YS02001661           JUNCTION     0.82     1.90     9.31     0  02:46        1.19
  YS02001664           JUNCTION     0.37     0.58     8.50     0  02:42        0.56
  YS02001622           JUNCTION     1.26     1.62     8.52     0  02:32        1.50
  YS02001633           JUNCTION     1.67     1.95     8.40     0  02:57        1.94
  YS02001649           JUNCTION     1.73     2.05     8.44     0  02:43        2.04
  YS02001757           JUNCTION     1.85     2.21     8.47     0  02:32        2.18
  YS02001895           JUNCTION     0.57     1.57     8.31     0  02:57        1.56
  YS02001625           JUNCTION     1.53     1.78     8.38     0  02:32        1.78
  YS02163301           JUNCTION     1.61     1.91     8.42     0  02:32        1.88
  YS02163601           JUNCTION     1.72     1.99     8.39     0  03:47        1.98
  YS02164001           JUNCTION     1.66     1.92     8.38     0  03:47        1.91
  YS02001647           JUNCTION     1.51     1.80     8.41     0  02:44        1.78
  YSB1154              JUNCTION     0.27     0.57     9.62     0  03:01        0.57
  YSB6556              JUNCTION     0.17     0.45     9.62     0  03:02        0.45
  YSB1174              JUNCTION     0.22     0.52     9.62     0  03:01        0.51
  YSB1171              JUNCTION     0.42     0.72     9.62     0  03:01        0.72
  YS02006553           JUNCTION     1.00     2.02     8.30     0  02:56        1.97
  YS02006561           JUNCTION     0.34     1.22     7.88     0  02:56        1.10
  YS02006556           JUNCTION     0.96     2.06     8.37     0  02:56        1.96
  YS02006558           JUNCTION     1.00     2.12     8.39     0  02:56        2.01
  YS02001783           JUNCTION     0.57     1.65     7.79     0  02:56        1.49
  YS02001784           JUNCTION     0.58     1.61     7.68     0  02:56        1.44
  YS02001786           JUNCTION     0.51     1.45     7.48     0  02:56        1.28
  YS02001788           JUNCTION     0.44     1.32     7.30     0  02:56        1.14
  YS02001790           JUNCTION     0.56     1.53     7.18     0  06:31        1.30
  YS02001791           JUNCTION     0.52     1.56     7.03     0  06:29        1.27
  YS02001793           JUNCTION     0.72     1.80     6.64     0  03:12        1.80
  WSC                  OUTFALL      0.34     0.48     1.15     0  03:07        0.48
  JK-storage           STORAGE      3.00     5.80     6.60     0  02:15        5.80
  CC-storage           STORAGE      1.11     1.45     8.45     0  03:14        1.45
  XR-storage           STORAGE      6.54     7.72     5.72     0  02:55        7.72
  
  
  *******************
  Node Inflow Summary
  *******************
  
  -------------------------------------------------------------------------------------------------
                                  Maximum  Maximum                  Lateral       Total        Flow
                                  Lateral    Total  Time of Max      Inflow      Inflow     Balance
                                   Inflow   Inflow   Occurrence      Volume      Volume       Error
  Node                 Type           LPS      LPS  days hr:min    10^6 ltr    10^6 ltr     Percent
  -------------------------------------------------------------------------------------------------
  WS02001211           JUNCTION      7.35   393.19     0  03:15       0.207        9.97       0.400
  WS02001212           JUNCTION      0.00   399.11     0  03:15           0        9.93       0.232
  WS02001213           JUNCTION      0.00   404.22     0  03:14           0        9.91       0.289
  WS02003069           JUNCTION      0.32  1332.92     0  03:05     0.00902        18.1       0.181
  WS02003072           JUNCTION      0.00  1332.69     0  03:06           0          18       0.219
  WS02003073           JUNCTION      1.82  1334.64     0  03:06      0.0514          18       0.249
  WS02003060           JUNCTION     16.53  1332.64     0  03:04       0.466        18.1       0.171
  WS02003066           JUNCTION      0.00   938.77     0  03:04           0        7.78       0.052
  WS02003059           JUNCTION      0.00   410.79     0  03:14           0        9.88       0.401
  WS02003067           JUNCTION      0.00   938.30     0  03:04           0        7.79       0.112
  WS02004401           JUNCTION      0.00   939.98     0  03:03           0        8.01       0.248
  WS02004402           JUNCTION      0.00   940.07     0  03:02           0        7.99       0.236
  WS02004403           JUNCTION      0.00   940.43     0  03:02           0        7.97       0.216
  WS02004404           JUNCTION      0.16   941.41     0  03:03     0.00457        7.96       0.163
  WS02004406           JUNCTION      0.00   940.14     0  03:02           0        7.93       0.399
  WS02004409           JUNCTION      0.00   939.62     0  03:03           0        7.89       0.185
  WS02004410           JUNCTION      0.00   938.48     0  03:03           0        7.87       0.211
  WS02004411           JUNCTION      0.00   937.99     0  03:03           0        7.86       0.219
  WS02004412           JUNCTION      0.00   937.81     0  03:03           0        7.84       0.239
  WS02004413           JUNCTION      0.00   938.10     0  03:04           0        7.82       0.359
  WS02004405           JUNCTION      0.04   940.81     0  03:03     0.00107        7.95       0.247
  WS02006109           JUNCTION      1.23   915.45     0  03:02      0.0347        8.03       0.206
  WS02006110           JUNCTION      0.00   915.33     0  03:03           0        8.02       0.240
  WS02006111           JUNCTION      0.00   916.02     0  03:03           0        7.99       0.046
  WS02006112           JUNCTION     30.67   939.78     0  03:02      0.0853        8.07       0.345
  WS02006113           JUNCTION      0.00   915.71     0  03:03           0           8       0.109
  WS02006115           JUNCTION      0.00   939.54     0  03:02           0        8.04       0.229
  WS02006116           JUNCTION      0.00   940.56     0  03:02           0        8.02       0.206
  WS02006230           JUNCTION     10.28   506.86     0  03:33        0.29        5.61       0.227
  WS02006231           JUNCTION      0.00   496.50     0  03:33           0        5.32       0.151
  WS02006232           JUNCTION      0.00   496.41     0  03:33           0        5.34       0.296
  WS02006234           JUNCTION      0.00   496.30     0  03:33           0        5.34       0.097
  WS02006235           JUNCTION      0.00   496.19     0  03:33           0        5.46       0.202
  WS02006238           JUNCTION      0.00   305.97     0  03:33           0        1.81       0.362
  WS02006240           JUNCTION      0.00   305.85     0  03:33           0        1.73       0.478
  WS02006242           JUNCTION      0.00   305.81     0  03:33           0        1.71       0.535
  WS02006243           JUNCTION      0.00   305.77     0  03:33           0        1.68       0.318
  WS02006245           JUNCTION      0.00   311.00     0  05:50           0        1.67       0.368
  WS02006247           JUNCTION      0.00   336.54     0  05:50           0        1.67       0.094
  WS02006248           JUNCTION      0.00   354.26     0  04:30           0        1.66      -0.058
  WS02006249           JUNCTION      0.00   421.30     0  03:30           0         1.8       0.114
  WS02006239           JUNCTION      0.00   305.91     0  03:33           0        1.77       0.361
  WS02006251           JUNCTION      0.08   420.76     0  03:30     0.00217        1.83      -0.034
  WS02006252           JUNCTION      0.00   399.72     0  04:30           0        1.32       0.009
  WS02006253           JUNCTION      3.75   143.72     0  03:01      0.0103       0.504      -0.052
  WS02006256           JUNCTION      0.00   983.00     0  02:30           0        9.86       0.013
  WS02004138           JUNCTION      0.00   380.00     0  00:00           0         9.8       0.069
  WS02004139           JUNCTION      0.32   394.45     0  00:00     0.00905        9.81       0.460
  WS02004407           JUNCTION      0.00   939.88     0  03:03           0        7.89       0.083
  WS02006228           JUNCTION      0.00   914.41     0  03:03           0        8.01       0.158
  WS02006229           JUNCTION      0.00   919.09     0  03:01           0        8.02       0.150
  WS02006280           JUNCTION      0.00   680.11     0  03:02           0        2.43       0.004
  WS02006284           JUNCTION      0.10   678.97     0  03:02      0.0027        2.43       0.048
  WS02006287           JUNCTION      0.00   677.60     0  03:02           0        2.43       0.030
  WSF200               JUNCTION      0.00   938.91     0  03:04           0        7.78       0.048
  HS02004901           JUNCTION     37.63    37.63     0  03:01       0.103       0.103       1.740
  HS02004881           JUNCTION     14.26   140.54     0  03:01      0.0422       0.463       0.078
  HS02004876           JUNCTION     25.66   127.64     0  03:01      0.0814       0.422       0.132
  HS02004870           JUNCTION     26.26   103.59     0  03:01      0.0799        0.34       0.034
  HS02004862           JUNCTION     25.49    79.37     0  03:01      0.0888       0.261       0.068
  HS02004856           JUNCTION     19.64    55.41     0  03:01      0.0601       0.173       0.844
  HS02004852           JUNCTION      0.00    37.84     0  03:01           0       0.113       0.053
  HS02004848           JUNCTION     55.75    55.75     0  03:01       0.197       0.197       0.027
  HS02004842           JUNCTION      0.00    16.84     0  03:01           0       0.097      15.492
  HS02004837           JUNCTION     50.35    65.70     0  03:01       0.318       0.402       0.203
  HS02004830           JUNCTION      0.15    64.79     0  03:01     0.00423       0.392       0.316
  HS02004824           JUNCTION     65.57   128.45     0  03:01       0.251       0.642       0.085
  HS02004817           JUNCTION      0.60   124.46     0  03:01      0.0169       0.658       2.600
  HS02004807           JUNCTION     48.45   165.84     0  03:01       0.147       0.788       0.554
  HS02004802           JUNCTION      0.00   165.32     0  03:04           0       0.785       0.505
  HS02004799           JUNCTION     38.67   446.06     0  03:01       0.119        1.42       0.191
  HS02004792           JUNCTION    184.82   411.85     0  03:01        0.54         1.3       0.033
  HS02004788           JUNCTION     58.68   233.43     0  03:01       0.219       0.758       0.052
  HS02004785           JUNCTION      0.15   182.20     0  03:01     0.00423        0.54       0.093
  HS02004777           JUNCTION      0.03   185.02     0  03:01    0.000846       0.541       0.971
  HS02004770           JUNCTION    154.22   188.95     0  03:01       0.441       0.542       0.577
  HS02004480           JUNCTION      0.00   517.20     0  03:01           0        1.66       0.070
  HS02004479           JUNCTION      0.00    75.45     0  03:02           0       0.258       0.286
  HS02004478           JUNCTION      0.00   677.00     0  03:02           0        2.43       0.012
  YS02001745           JUNCTION    438.14   438.14     0  03:01        3.01        3.02       0.379
  YS02001748           JUNCTION      0.04   604.26     0  02:32     0.00127        3.01       0.700
  YS02001751           JUNCTION      0.01   443.51     0  03:01     0.00031        2.98       0.786
  YS02001754           JUNCTION      0.26   443.30     0  03:01     0.00733        2.96       0.851
  YS02001762           JUNCTION      0.00   313.48     0  02:43           0        2.03       1.055
  YS02001765           JUNCTION      0.00   312.99     0  02:43           0        2.03       1.217
  YS02001767           JUNCTION      0.54   313.68     0  02:43      0.0151        2.06       1.768
  YS02001770           JUNCTION    552.50   694.19     0  03:14        3.37        4.13       0.774
  YS02001774           JUNCTION      0.00   694.21     0  03:14           0        2.83       0.900
  YS02001779           JUNCTION      0.01   694.23     0  03:14    0.000141         2.8       0.555
  YS02001882           JUNCTION      0.00    11.35     0  02:35           0      0.0182      13.405
  YS02001884           JUNCTION      0.00    20.13     0  02:40           0      0.0546      13.011
  YS02001759           JUNCTION    536.49   620.94     0  02:43        3.11        4.34       0.531
  YS02001887           JUNCTION    679.97   682.50     0  03:01        3.56         3.6       0.240
  YS02001890           JUNCTION      0.00   682.13     0  03:01           0        3.55       0.261
  YS02001898           JUNCTION      0.00   517.84     0  02:58           0        3.45       0.096
  YS02001901           JUNCTION      0.00   517.63     0  02:58           0        3.45       0.194
  YS02001904           JUNCTION      0.00   517.71     0  02:59           0        3.44       0.178
  YS02001907           JUNCTION      0.00  1111.38     0  03:01           0        7.77       0.309
  YS02001910           JUNCTION      0.00   595.17     0  03:01           0        4.34       0.278
  YS02001915           JUNCTION    389.26   594.97     0  03:01        2.52        4.35       0.137
  YS02001918           JUNCTION      0.00   259.47     0  02:52           0        1.84       0.078
  YS02001619           JUNCTION    380.66   380.66     0  03:01        2.51        2.51       0.488
  YS02001629           JUNCTION      0.00   198.82     0  02:39           0        1.59       1.857
  YS02001641           JUNCTION      0.00   415.61     0  02:39           0        4.46       0.483
  YS02001644           JUNCTION    416.76  1528.62     0  03:01         2.9        12.3       0.217
  YS02001652           JUNCTION      0.00   501.52     0  03:01           0        2.62       0.902
  YS02001655           JUNCTION      0.15   501.67     0  03:01     0.00434        2.64       0.933
  YS02001920           JUNCTION      2.87   259.75     0  02:52      0.0809        1.84       0.158
  YS02001923           JUNCTION      0.04   228.32     0  02:52     0.00106        1.76       0.050
  YS02001926           JUNCTION      0.05   201.31     0  03:02     0.00147        1.75       0.199
  YS02001929           JUNCTION    189.18   189.18     0  03:01        1.75        1.75       0.037
  YS02001658           JUNCTION      0.00   589.96     0  02:29           0        2.68       0.845
  YS02001661           JUNCTION      0.00   683.98     0  02:42           0        2.93       0.086
  YS02001664           JUNCTION    492.63   492.63     0  03:01        2.67        2.92       0.214
  YS02001622           JUNCTION      0.00   381.28     0  03:01           0         2.5       1.282
  YS02001633           JUNCTION    423.29   423.29     0  03:01        2.99        4.52       0.717
  YS02001649           JUNCTION      0.00   872.53     0  02:40           0         6.8       0.546
  YS02001757           JUNCTION      0.00  1676.84     0  02:40           0        8.51       1.090
  YS02001895           JUNCTION      0.00   517.69     0  02:59           0        3.45       0.147
  YS02001625           JUNCTION      0.00   408.59     0  03:01           0        2.47       1.585
  YS02163301           JUNCTION      0.00   203.08     0  02:34           0        1.57       1.558
  YS02163601           JUNCTION      0.11   417.59     0  02:39      0.0031        4.48       0.674
  YS02164001           JUNCTION      0.00   417.18     0  02:39           0        4.46       0.457
  YS02001647           JUNCTION      0.00   791.54     0  03:15           0        6.13       0.465
  YSB1154              JUNCTION     44.76    44.76     0  03:01       0.144       0.144       1.016
  YSB6556              JUNCTION      0.00    43.28     0  03:01           0       0.145       0.869
  YSB1174              JUNCTION     38.10    38.10     0  03:01       0.106       0.107       1.221
  YSB1171              JUNCTION      0.00    76.96     0  03:01           0       0.257       2.525
  YS02006553           JUNCTION      0.00   719.05     0  02:51           0         6.8       0.230
  YS02006561           JUNCTION      0.00  1146.90     0  02:56           0          10       0.006
  YS02006556           JUNCTION      0.00   719.25     0  02:51           0        6.81       0.160
  YS02006558           JUNCTION    587.14  1147.75     0  02:55        3.28        10.1       0.050
  YS02001783           JUNCTION      0.00  1146.83     0  02:56           0          10       0.022
  YS02001784           JUNCTION      1.06  1148.20     0  02:56      0.0299        10.1       0.035
  YS02001786           JUNCTION      0.06  1147.79     0  02:56     0.00159        10.1       0.034
  YS02001788           JUNCTION      0.07  1149.92     0  02:56       0.002        10.1       0.018
  YS02001790           JUNCTION      0.15  1161.02     0  02:55     0.00437        10.1       0.013
  YS02001791           JUNCTION      0.00  1266.63     0  02:54           0        10.1      -0.006
  YS02001793           JUNCTION      0.00  1216.16     0  02:52           0        10.1      -0.007
  WSC                  OUTFALL       0.00  1334.89     0  03:07           0          18       0.000
  JK-storage           STORAGE       0.00  1172.07     0  02:52           0        10.2      -9.769
  CC-storage           STORAGE       0.00  1676.73     0  02:40           0        5.38       1.223
  XR-storage           STORAGE    1024.87  1024.87     0  03:01        12.7        13.3      -0.002
  
  
  **********************
  Node Surcharge Summary
  **********************
  
  Surcharging occurs when water rises above the top of the highest conduit.
  ---------------------------------------------------------------------
                                               Max. Height   Min. Depth
                                   Hours       Above Crown    Below Rim
  Node                 Type      Surcharged         Meters       Meters
  ---------------------------------------------------------------------
  WS02004401           JUNCTION        0.40          0.235        1.425
  WS02004402           JUNCTION        0.46          0.225        1.515
  WS02004403           JUNCTION        0.47          0.202        1.828
  WS02004404           JUNCTION        1.01          0.248        2.532
  WS02004406           JUNCTION        0.87          0.163        2.287
  WS02004413           JUNCTION        0.17          0.023        2.177
  WS02004405           JUNCTION        0.96          0.219        2.581
  WS02006109           JUNCTION        2.03          0.839        0.981
  WS02006110           JUNCTION        1.22          0.543        1.307
  WS02006111           JUNCTION        0.12          0.076        1.794
  WS02006112           JUNCTION        1.33          0.562        1.118
  WS02006113           JUNCTION        0.14          0.123        1.807
  WS02006115           JUNCTION        0.28          0.209        2.041
  WS02006116           JUNCTION        0.30          0.201        2.089
  WS02006230           JUNCTION        0.99          0.797        0.773
  WS02006231           JUNCTION        1.20          0.812        0.718
  WS02006232           JUNCTION        1.74          0.927        0.553
  WS02006234           JUNCTION        1.43          0.805        0.435
  WS02006235           JUNCTION        1.54          0.833        0.457
  WS02006238           JUNCTION        1.57          0.836        0.594
  WS02006240           JUNCTION        1.26          0.689        0.701
  WS02006242           JUNCTION        1.29          0.699        0.121
  WS02006243           JUNCTION        0.96          0.663        0.107
  WS02006245           JUNCTION        0.82          0.585        0.265
  WS02006247           JUNCTION        0.81          0.548        0.212
  WS02006248           JUNCTION        0.66          0.380        0.000
  WS02006249           JUNCTION        0.70          0.390        0.000
  WS02006239           JUNCTION        1.36          0.749        0.541
  WS02006251           JUNCTION        0.33          0.152        1.028
  WS02006252           JUNCTION        0.67          0.281        0.819
  WS02006253           JUNCTION        0.35          0.197        2.283
  WS02006256           JUNCTION        6.78          2.050        0.000
  WS02006228           JUNCTION        2.00          0.998        1.202
  YS02001748           JUNCTION        5.22          1.190        0.000
  YS02001751           JUNCTION        5.36          1.187        0.013
  YS02001754           JUNCTION        5.58          1.150        0.000
  YS02001762           JUNCTION        5.75          1.088        0.062
  YS02001765           JUNCTION        5.72          1.017        0.083
  YS02001767           JUNCTION        5.69          0.954        0.076
  YS02001770           JUNCTION        5.68          0.914        0.006
  YS02001774           JUNCTION        5.74          0.989        0.061
  YS02001779           JUNCTION        5.56          0.680        0.000
  YS02001882           JUNCTION        1.07          0.635        0.195
  YS02001884           JUNCTION        1.09          0.675        0.195
  YS02001759           JUNCTION        5.78          1.120        0.090
  YS02001887           JUNCTION        1.17          0.764        0.186
  YS02001890           JUNCTION        1.20          0.760        0.000
  YS02001898           JUNCTION        1.02          0.531        0.209
  YS02001901           JUNCTION        1.13          0.677        0.193
  YS02001904           JUNCTION        1.11          0.638        0.212
  YS02001907           JUNCTION        1.93          0.950        0.000
  YS02001910           JUNCTION        1.24          0.785        0.315
  YS02001915           JUNCTION        1.05          0.600        0.400
  YS02001918           JUNCTION        0.86          0.282        0.528
  YS02001619           JUNCTION        5.37          0.610        0.000
  YS02001629           JUNCTION        5.37          0.470        0.000
  YS02001641           JUNCTION        5.73          0.939        0.161
  YS02001644           JUNCTION        5.73          0.920        0.000
  YS02001652           JUNCTION        5.61          1.087        0.043
  YS02001655           JUNCTION        5.39          1.200        0.000
  YS02001920           JUNCTION        0.89          0.361        0.779
  YS02001658           JUNCTION        5.25          1.087        0.213
  YS02001661           JUNCTION        0.11          0.834        0.556
  YS02001622           JUNCTION        5.40          0.620        0.000
  YS02001633           JUNCTION        5.71          0.929        0.131
  YS02001649           JUNCTION        5.76          1.050        0.000
  YS02001757           JUNCTION        5.86          1.210        0.000
  YS02001895           JUNCTION        1.04          0.566        0.184
  YS02001625           JUNCTION        5.64          0.780        0.000
  YS02163301           JUNCTION        5.68          0.906        0.124
  YS02163601           JUNCTION        5.75          0.992        0.088
  YS02164001           JUNCTION        5.72          0.923        0.177
  YS02001647           JUNCTION        5.62          0.804        0.096
  YS02006553           JUNCTION        2.01          1.019        0.171
  YS02006561           JUNCTION        0.87          0.424        0.726
  YS02006556           JUNCTION        1.47          1.017        0.333
  YS02006558           JUNCTION        1.43          1.022        0.378
  YS02001783           JUNCTION        1.30          0.846        0.754
  YS02001784           JUNCTION        1.28          0.813        0.677
  YS02001786           JUNCTION        1.09          0.650        0.780
  YS02001788           JUNCTION        0.89          0.520        0.960
  YS02001790           JUNCTION        1.91          0.730        0.427
  YS02001791           JUNCTION        2.17          0.760        1.160
  YS02001793           JUNCTION        2.50          0.804        1.796
  
  
  *********************
  Node Flooding Summary
  *********************
  
  Flooding refers to all water that overflows a node, whether it ponds or not.
  --------------------------------------------------------------------------
                                                             Total   Maximum
                                 Maximum   Time of Max       Flood    Ponded
                        Hours       Rate    Occurrence      Volume     Depth
  Node                 Flooded       LPS   days hr:min    10^6 ltr    Meters
  --------------------------------------------------------------------------
  WS02006248              0.07     15.55      0  04:31       0.002     0.000
  WS02006249              0.33    226.31      0  03:00       0.135     0.000
  WS02006256              3.53    795.41      0  03:25       6.122     0.000
  YS02001748              0.01    238.29      0  02:32       0.000     0.000
  YS02001754              0.01      4.50      0  02:32       0.000     0.000
  YS02001779              3.34    694.23      0  03:14       2.779     0.000
  YS02001890              0.34    165.36      0  03:01       0.085     0.000
  YS02001907              0.72    730.70      0  03:01       0.954     0.000
  YS02001619              0.01     27.94      0  02:32       0.000     0.000
  YS02001629              0.01     15.82      0  02:32       0.000     0.000
  YS02001644              5.17   1528.03      0  03:01      11.033     0.000
  YS02001655              0.01    201.53      0  02:25       0.000     0.000
  YS02001622              0.01     12.41      0  02:32       0.000     0.000
  YS02001649              0.01     36.22      0  02:44       0.000     0.000
  YS02001757              0.01     21.40      0  02:32       0.000     0.000
  YS02001625              1.40    408.18      0  03:01       0.854     0.000
  JK-storage              1.06    967.50      0  03:10       1.451     0.000
  XR-storage              3.52    644.68      0  03:01       2.729     0.000
  
  
  **********************
  Storage Volume Summary
  **********************
  
  --------------------------------------------------------------------------------------------------
                         Average     Avg  Evap Exfil       Maximum     Max    Time of Max    Maximum
                          Volume    Pcnt  Pcnt  Pcnt        Volume    Pcnt     Occurrence    Outflow
  Storage Unit           1000 m3    Full  Loss  Loss       1000 m3    Full    days hr:min        LPS
  --------------------------------------------------------------------------------------------------
  JK-storage               0.151      52     0     0         0.291     100       0  02:15     983.00
  CC-storage               3.093      20     0     0         4.033      26       0  03:14     399.72
  XR-storage               0.785      85     0     0         0.926     100       0  02:55     380.00
  
  
  ***********************
  Outfall Loading Summary
  ***********************
  
  ---------------------------------------------------------------------------------------------------------------------------------
                         Flow       Avg       Max       Total         Total         Total         Total         Total         Total
                         Freq      Flow      Flow      Volume           COD            SS            TN            TP         NH4-N
  Outfall Node           Pcnt       LPS       LPS    10^6 ltr            kg            kg            kg            kg            kg
  ---------------------------------------------------------------------------------------------------------------------------------
  WSC                   99.99    719.53   1334.89      17.993      2237.873      3859.108       145.171        17.134        87.958
  ---------------------------------------------------------------------------------------------------------------------------------
  System                99.99    719.53   1334.89      17.993      2237.873      3859.108       145.171        17.134        87.958
  
  
  ********************
  Link Flow Summary
  ********************
  
  -----------------------------------------------------------------------------
                                 Maximum  Time of Max   Maximum    Max/    Max/
                                  |Flow|   Occurrence   |Veloc|    Full    Full
  Link                 Type          LPS  days hr:min     m/sec    Flow   Depth
  -----------------------------------------------------------------------------
  WS02003066WSF200     CONDUIT    938.91     0  03:04      3.00    0.16    0.32
  WS02006287WS02006284 CONDUIT    678.87     0  03:02      2.38    0.31    0.39
  WS02006284WS02006280 CONDUIT    680.11     0  03:02      2.62    0.28    0.37
  WS02006280WS02006229 CONDUIT    680.15     0  03:02      3.85    0.15    0.50
  WS02006229WS02006228 CONDUIT    914.41     0  03:03      1.82    3.03    1.00
  WS02006256WS02006235 CONDUIT    264.10     0  00:12      3.74    2.80    1.00
  WS02006253WS02006251 CONDUIT    150.42     0  03:08      0.54    0.45    1.00
  WS02006252WS02006251 CONDUIT    399.59     0  03:30      3.18    1.47    1.00
  WS02006251WS02006249 CONDUIT    421.30     0  03:30      1.09    1.21    1.00
  WS02006249WS02006248 CONDUIT    354.26     0  04:30      1.10    1.94    1.00
  WS02006248WS02006247 CONDUIT    336.54     0  05:50      1.02    0.73    1.00
  WS02006247WS02006245 CONDUIT    311.00     0  05:50      0.94    2.47    1.00
  WS02006245WS02006243 CONDUIT    305.77     0  03:33      1.04    0.90    1.00
  WS02006243WS02006242 CONDUIT    305.81     0  03:33      0.90    0.65    1.00
  WS02006242WS02006240 CONDUIT    305.85     0  03:33      0.88    1.21    1.00
  WS02006240WS02006239 CONDUIT    305.91     0  03:33      0.91    0.96    1.00
  WS02006239WS02006238 CONDUIT    305.97     0  03:33      0.80    0.98    1.00
  WS02006238WS02006235 CONDUIT    306.04     0  03:33      1.05    0.68    1.00
  WS02006235WS02006234 CONDUIT    496.30     0  03:33      1.29    5.24    1.00
  WS02006234WS02006232 CONDUIT    496.41     0  03:33      1.29    1.00    1.00
  WS02006232WS02006231 CONDUIT    496.50     0  03:33      1.29    1.04    1.00
  WS02006231WS02006230 CONDUIT    496.58     0  03:33      1.34    7.53    1.00
  WS02006230WS02006229 CONDUIT    507.13     0  03:33      1.32   11.29    1.00
  WS02006228WS02006109 CONDUIT    914.22     0  03:02      1.82    3.99    1.00
  WS02006116WS02004401 CONDUIT    939.98     0  03:03      1.20    1.30    1.00
  WS02006115WS02006116 CONDUIT    940.56     0  03:02      1.20    1.21    1.00
  WS02006113WS02006111 CONDUIT    916.02     0  03:03      2.60    1.10    1.00
  WS02006112WS02006115 CONDUIT    939.54     0  03:02      1.20    0.55    1.00
  WS02006111WS02006112 CONDUIT    916.40     0  03:02      1.82    0.44    1.00
  WS02006110WS02006113 CONDUIT    915.71     0  03:03      1.82    0.83    1.00
  WS02006109WS02006110 CONDUIT    915.33     0  03:03      1.82    1.76    1.00
  WS02004411WS02004412 CONDUIT    937.81     0  03:03      1.24    1.33    0.92
  WS02004401WS02004402 CONDUIT    940.07     0  03:02      1.20    1.13    1.00
  WS02004413WS02003067 CONDUIT    938.30     0  03:04      1.55    0.40    0.72
  WS02004412WS02004413 CONDUIT    938.10     0  03:04      1.22    0.63    0.95
  WS02004410WS02004411 CONDUIT    937.99     0  03:03      1.23    1.28    0.94
  WS02004409WS02004410 CONDUIT    938.48     0  03:03      1.21    1.21    0.95
  WS02004407WS02004409 CONDUIT    939.62     0  03:03      1.67    0.33    0.68
  WS02004406WS02004407 CONDUIT    939.88     0  03:03      1.60    0.42    0.70
  WS02004405WS02004406 CONDUIT    940.14     0  03:02      1.20    1.85    1.00
  WS02004404WS02004405 CONDUIT    940.77     0  03:03      1.20    9.22    1.00
  WS02004403WS02004404 CONDUIT    941.25     0  03:03      1.20    0.68    1.00
  WS02004402WS02004403 CONDUIT    940.43     0  03:02      1.20    1.35    1.00
  WS02004139WS02001211 CONDUIT    385.84     0  03:15      0.90    0.49    0.64
  WS02004138WS02004139 CONDUIT    394.13     0  00:00      3.62    0.08    0.47
  WS02003067WS02003066 CONDUIT    938.77     0  03:04      1.65    0.30    0.50
  WS02001213WS02003059 CONDUIT    410.79     0  03:14      0.89    0.68    0.87
  WS02001212WS02001213 CONDUIT    404.22     0  03:14      1.32    0.62    0.56
  WS02001211WS02001212 CONDUIT    399.11     0  03:15      0.78    0.31    0.71
  WS02003072WS02003073 CONDUIT   1332.82     0  03:06      1.96    2.88    0.58
  WS02003069WS02003072 CONDUIT   1332.69     0  03:06      1.82    0.64    0.62
  WS02003060WS02003069 CONDUIT   1332.60     0  03:05      2.03    0.52    0.56
  WS02003059WS02003060 CONDUIT    418.04     0  03:14      0.95    0.27    0.77
  HS02004901HS02004770 CONDUIT     37.25     0  03:01      0.10    0.14    0.53
  HS02004876HS02004881 CONDUIT    127.63     0  03:01      1.21    1.36    0.15
  HS02004870HS02004876 CONDUIT    103.09     0  03:01      0.82    0.07    0.18
  HS02004842HS02004848 CONDUIT     16.84     0  03:01      0.07    0.01    0.33
  HS02004837HS02004842 CONDUIT     17.91     0  03:03      0.42    0.01    0.35
  HS02004830HS02004837 CONDUIT     64.64     0  03:01      0.67    0.06    0.14
  HS02004824HS02004830 CONDUIT     64.12     0  03:02      0.62    0.08    0.16
  HS02004817HS02004824 CONDUIT    123.86     0  03:01      0.31    0.06    0.58
  HS02004770HS02004777 CONDUIT    184.99     0  03:01      0.49    0.34    0.54
  HS02004799HS02004480 CONDUIT    444.32     0  03:01      1.07    0.56    0.60
  HS02004792HS02004799 CONDUIT    408.45     0  03:01      1.20    0.25    0.49
  HS02004788HS02004792 CONDUIT    232.94     0  03:02      1.28    0.15    0.26
  HS02004785HS02004788 CONDUIT    181.77     0  03:02      0.91    1.37    0.29
  HS02004777HS02004785 CONDUIT    182.05     0  03:01      0.57    0.22    0.45
  HS02004480HS02004478 CONDUIT    517.32     0  03:01      1.55    2.18    0.48
  HS02004479HS02004480 CONDUIT     77.29     0  03:02      0.30    0.07    0.57
  HS02004862HS02004870 CONDUIT     79.02     0  03:01      0.80    0.09    0.14
  HS02004848HS02004852 CONDUIT     37.84     0  03:01      0.53    0.04    0.10
  HS02004856HS02004862 CONDUIT     54.76     0  03:01      0.59    0.05    0.13
  HS02004852HS02004856 CONDUIT     37.76     0  03:02      0.34    0.04    0.16
  HS02004802HS02004478 CONDUIT    170.15     0  03:04      0.54    0.15    0.48
  HS02004478WS02006287 CONDUIT    677.60     0  03:02      2.11    0.19    0.36
  HS02004817HS02004807 CONDUIT    128.14     0  03:04      0.25    0.08    0.75
  HS02004807HS02004802 CONDUIT    165.32     0  03:04      0.46    0.32    0.53
  YS02001759YS02001757 CONDUIT    620.96     0  02:43      0.79    0.44    1.00
  YS02001762YS02001759 CONDUIT    313.38     0  02:43      0.40    0.36    1.00
  YS02001765YS02001762 CONDUIT    313.48     0  02:43      0.40    0.29    1.00
  YS02001770YS02001767 CONDUIT    313.14     0  02:43      0.40    1.24    1.00
  YS02001774YS02001770 CONDUIT    694.21     0  03:14      0.88    0.44    1.00
  YS02001779YS02001774 CONDUIT    694.22     0  03:14      0.88    0.35    1.00
  YS02001649YS02001757 CONDUIT    872.18     0  02:40      1.11    0.53    1.00
  YS02001767YS02001765 CONDUIT    312.99     0  02:43      0.40    0.39    1.00
  YS02006561YS02001783 CONDUIT   1146.83     0  02:56      2.28    0.59    1.00
  YS02001783YS02001784 CONDUIT   1147.14     0  02:56      2.28    1.58    1.00
  YS02001784YS02001785 CONDUIT   1147.73     0  02:56      2.28    2.67    1.00
  YS02001788YS02001790 CONDUIT   1160.87     0  02:55      2.74    0.86    1.00
  YS02001790YS02001791 CONDUIT   1266.63     0  02:54      3.43    1.38    1.00
  YS02001791YS02001793 CONDUIT   1216.16     0  02:52      6.50    0.52    1.00
  YS02001910YS02001907 CONDUIT    595.03     0  03:01      0.76    0.34    1.00
  YS02001786YS02001788 CONDUIT   1149.85     0  02:56      2.47    2.22    1.00
  YS02001915YS02001910 CONDUIT    595.17     0  03:01      0.76    0.30    1.00
  YS02001918YS02001915 CONDUIT    260.36     0  02:52      0.44    0.14    1.00
  YS02001923YS02001920 CONDUIT    256.88     0  02:52      0.75    0.12    1.00
  YS02001926YS02001923 CONDUIT    228.28     0  02:52      0.86    0.33    0.93
  YS02001929YS02001926 CONDUIT    201.25     0  03:02      0.92    0.10    0.82
  YS02001920YS02001918 CONDUIT    259.47     0  02:52      0.72    0.25    1.00
  YS02001629YS02163301 CONDUIT    203.08     0  02:34      0.26    0.25    1.00
  YS02001619YS02001622 CONDUIT    381.28     0  03:01      0.59    0.56    1.00
  YS02001622YS02001625 CONDUIT    381.79     0  03:01      0.49    0.20    1.00
  YS02001625YS02001629 CONDUIT    198.82     0  02:39      0.25    0.09    1.00
  YS02163301YS02001633 CONDUIT    206.87     0  02:34      0.26    0.19    1.00
  YS02163601YS02164001 CONDUIT    417.18     0  02:39      0.53    0.37    1.00
  YS02164001YS02001641 CONDUIT    415.61     0  02:39      0.53    0.57    1.00
  YS02001641YS02001644 CONDUIT    414.98     0  02:39      0.53    1.34    1.00
  YS02001647YS02001649 CONDUIT    791.54     0  03:15      1.01    0.42    1.00
  YS02006553YS02006556 CONDUIT    719.25     0  02:51      0.92    0.62    1.00
  YS02006556YS02006558 CONDUIT    718.68     0  02:51      0.92    0.57    1.00
  YSB6556YSB1171       CONDUIT     42.82     0  03:02      0.13    0.04    0.82
  YS02001907YS02006553 CONDUIT    719.05     0  02:51      0.80    0.85    1.00
  YS02006558YS02006561 CONDUIT   1146.90     0  02:56      4.06    2.53    1.00
  YS02001633YS02163601 CONDUIT    417.48     0  02:39      0.53    0.44    1.00
  YS02001644YS02001647 CONDUIT    791.54     0  03:15      1.01    0.46    1.00
  YS02001745YS02001748 CONDUIT    604.21     0  02:32      1.46    0.23    0.98
  YS02001748YS02001751 CONDUIT    443.50     0  03:01      1.03    0.22    1.00
  YS02001751YS02001754 CONDUIT    443.04     0  03:01      0.88    0.21    1.00
  YS02001754YS02001757 CONDUIT    443.36     0  03:01      0.56    0.18    1.00
  YS02001882YS02001884 CONDUIT     11.35     0  02:35      0.12    0.01    1.00
  YS02001884YS02001887 CONDUIT     20.13     0  02:40      0.08    0.03    1.00
  YS02001890YS02001895 CONDUIT    517.69     0  02:59      0.66    0.24    1.00
  YS02001895YS02001898 CONDUIT    517.84     0  02:58      0.66    0.90    1.00
  YS02001898YS02001901 CONDUIT    517.63     0  02:58      0.66    0.33    1.00
  YS02001901YS02001904 CONDUIT    517.71     0  02:59      0.66    0.80    1.00
  YS02001904YS02001907 CONDUIT    518.73     0  02:59      0.66    0.18    1.00
  YS02001887YS02001890 CONDUIT    682.13     0  03:01      0.87    1.17    1.00
  YS02001652YS02001649 CONDUIT    500.54     0  03:01      0.64    0.25    1.00
  YS02001655YS02001652 CONDUIT    501.52     0  03:01      0.94    0.24    1.00
  YS02001658YS02001655 CONDUIT    501.52     0  03:01      1.18    0.21    1.00
  YS02001661YS02001658 CONDUIT    589.96     0  02:29      1.52    0.23    1.00
  YS02001664YS02001661 CONDUIT    683.98     0  02:42      1.43    0.21    0.77
  YSB1154YSB6556       CONDUIT     43.28     0  03:01      0.18    0.08    0.73
  YSB1174YSB1171       CONDUIT     36.66     0  03:01      0.11    0.06    0.85
  YSB1171HS02004479    CONDUIT     75.45     0  03:02      0.54    0.05    0.68
  HS02004881HS02006253 CONDUIT    140.47     0  03:01      2.14    0.03    0.54
  YS02001793JiankangQianchi CONDUIT   1172.07     0  02:52     16.49    0.09    1.00
  YS02001757CaochengTiaoxuchi CONDUIT   1676.73     0  02:40      2.17    0.74    1.00
  WSF200WS02003060     CONDUIT    939.25     0  03:04      1.93    0.21    0.45
  1                    CONDUIT   1334.89     0  03:07      3.59    0.46    0.48
  CC-Pump-1            PUMP       200.00     0  03:20              1.00
  CC-Pump-2            PUMP       199.86     0  04:30              1.00
  JK-Pump-1            PUMP       300.00     0  02:20              1.00
  JK-Pump-2            PUMP       683.00     0  02:30              1.00
  XR-Pump-1            PUMP        95.00     0  00:00              1.00
  XR-Pump-2            PUMP        95.00     0  00:00              1.00
  XR-Pump-3            PUMP        95.00     0  00:00              1.00
  XR-Pump-4            PUMP        95.00     0  00:00              1.00
  
  
  ***************************
  Flow Classification Summary
  ***************************
  
  -------------------------------------------------------------------------------------
                      Adjusted    ---------- Fraction of Time in Flow Class ---------- 
                       /Actual         Up    Down  Sub   Sup   Up    Down  Norm  Inlet 
  Conduit               Length    Dry  Dry   Dry   Crit  Crit  Crit  Crit  Ltd   Ctrl  
  -------------------------------------------------------------------------------------
  WS02003066WSF200        1.00   0.02  0.06  0.00  0.00  0.93  0.00  0.00  0.61  0.00
  WS02006287WS02006284    1.00   0.04  0.02  0.00  0.56  0.39  0.00  0.00  0.65  0.00
  WS02006284WS02006280    1.00   0.05  0.00  0.00  0.00  0.00  0.00  0.95  0.00  0.00
  WS02006280WS02006229    1.00   0.05  0.00  0.00  0.01  0.02  0.00  0.91  0.00  0.00
  WS02006229WS02006228    1.00   0.00  0.00  0.00  1.00  0.00  0.00  0.00  0.00  0.00
  WS02006256WS02006235    1.00   0.01  0.00  0.00  0.99  0.00  0.00  0.00  0.00  0.00
  WS02006253WS02006251    1.00   0.02  0.02  0.00  0.94  0.00  0.01  0.00  0.00  0.00
  WS02006252WS02006251    1.00   0.24  0.00  0.00  0.06  0.00  0.70  0.00  0.00  0.00
  WS02006251WS02006249    1.00   0.00  0.00  0.00  1.00  0.00  0.00  0.00  0.49  0.00
  WS02006249WS02006248    1.00   0.00  0.01  0.00  0.82  0.00  0.17  0.00  0.00  0.00
  WS02006248WS02006247    1.00   0.01  0.00  0.00  0.98  0.00  0.00  0.01  0.22  0.00
  WS02006247WS02006245    1.00   0.01  0.00  0.00  0.99  0.00  0.00  0.01  0.00  0.00
  WS02006245WS02006243    1.00   0.01  0.00  0.00  0.92  0.00  0.00  0.07  0.01  0.00
  WS02006243WS02006242    1.00   0.01  0.00  0.00  0.99  0.00  0.00  0.00  0.26  0.00
  WS02006242WS02006240    1.00   0.01  0.00  0.00  0.99  0.00  0.00  0.00  0.00  0.00
  WS02006240WS02006239    1.00   0.01  0.00  0.00  0.92  0.00  0.00  0.07  0.01  0.00
  WS02006239WS02006238    1.00   0.01  0.00  0.00  0.99  0.00  0.00  0.00  0.12  0.00
  WS02006238WS02006235    1.00   0.01  0.00  0.00  0.99  0.00  0.00  0.00  0.00  0.00
  WS02006235WS02006234    1.00   0.01  0.00  0.00  0.94  0.00  0.05  0.00  0.00  0.00
  WS02006234WS02006232    1.00   0.01  0.00  0.00  0.99  0.00  0.00  0.00  0.08  0.00
  WS02006232WS02006231    1.00   0.01  0.00  0.00  0.99  0.00  0.00  0.00  0.00  0.00
  WS02006231WS02006230    1.00   0.01  0.00  0.00  0.48  0.00  0.51  0.00  0.00  0.00
  WS02006230WS02006229    1.00   0.00  0.00  0.00  0.99  0.00  0.00  0.01  0.00  0.00
  WS02006228WS02006109    1.00   0.00  0.00  0.00  1.00  0.00  0.00  0.00  0.00  0.00
  WS02006116WS02004401    1.00   0.02  0.00  0.00  0.98  0.00  0.00  0.00  0.00  0.00
  WS02006115WS02006116    1.00   0.02  0.00  0.00  0.98  0.00  0.00  0.00  0.00  0.00
  WS02006113WS02006111    1.00   0.01  0.00  0.00  0.04  0.94  0.00  0.00  0.23  0.00
  WS02006112WS02006115    1.00   0.01  0.00  0.00  0.98  0.00  0.00  0.00  0.00  0.00
  WS02006111WS02006112    1.00   0.01  0.00  0.00  0.98  0.00  0.00  0.00  0.84  0.00
  WS02006110WS02006113    1.00   0.00  0.01  0.00  0.99  0.00  0.00  0.00  0.00  0.00
  WS02006109WS02006110    1.00   0.00  0.00  0.00  0.99  0.00  0.00  0.00  0.00  0.00
  WS02004411WS02004412    1.00   0.03  0.00  0.00  0.97  0.00  0.00  0.00  0.00  0.00
  WS02004401WS02004402    1.00   0.02  0.00  0.00  0.98  0.00  0.00  0.00  0.00  0.00
  WS02004413WS02003067    1.00   0.04  0.02  0.00  0.00  0.00  0.94  0.00  0.00  0.00
  WS02004412WS02004413    1.00   0.03  0.00  0.00  0.97  0.00  0.00  0.00  0.02  0.00
  WS02004410WS02004411    1.00   0.03  0.00  0.00  0.97  0.00  0.00  0.00  0.03  0.00
  WS02004409WS02004410    1.00   0.03  0.00  0.00  0.97  0.00  0.00  0.00  0.04  0.00
  WS02004407WS02004409    1.00   0.03  0.00  0.00  0.96  0.00  0.00  0.00  0.91  0.00
  WS02004406WS02004407    1.00   0.00  0.03  0.00  0.97  0.00  0.00  0.00  0.00  0.00
  WS02004405WS02004406    1.00   0.00  0.00  0.00  1.00  0.00  0.00  0.00  0.02  0.00
  WS02004404WS02004405    1.00   0.00  0.00  0.00  1.00  0.00  0.00  0.00  0.00  0.00
  WS02004403WS02004404    1.00   0.00  0.02  0.00  0.98  0.00  0.00  0.00  0.00  0.00
  WS02004402WS02004403    1.00   0.02  0.00  0.00  0.98  0.00  0.00  0.00  0.00  0.00
  WS02004139WS02001211    1.00   0.00  0.00  0.00  1.00  0.00  0.00  0.00  0.00  0.00
  WS02004138WS02004139    1.00   0.00  0.00  0.00  1.00  0.00  0.00  0.00  1.00  0.00
  WS02003067WS02003066    1.00   0.06  0.01  0.00  0.93  0.00  0.00  0.00  0.00  0.00
  WS02001213WS02003059    1.00   0.00  0.00  0.00  1.00  0.00  0.00  0.00  0.00  0.00
  WS02001212WS02001213    1.00   0.00  0.00  0.00  0.87  0.00  0.13  0.00  0.00  0.00
  WS02001211WS02001212    1.00   0.00  0.00  0.00  1.00  0.00  0.00  0.00  0.00  0.00
  WS02003072WS02003073    1.00   0.00  0.00  0.00  0.00  0.00  0.00  1.00  0.00  0.00
  WS02003069WS02003072    1.00   0.00  0.00  0.00  1.00  0.00  0.00  0.00  0.13  0.00
  WS02003060WS02003069    1.00   0.00  0.00  0.00  0.99  0.01  0.00  0.00  0.10  0.00
  WS02003059WS02003060    1.00   0.00  0.00  0.00  1.00  0.00  0.00  0.00  0.00  0.00
  HS02004901HS02004770    1.00   0.05  0.00  0.00  0.95  0.00  0.00  0.00  0.00  0.00
  HS02004876HS02004881    1.00   0.01  0.00  0.00  0.88  0.11  0.00  0.00  0.00  0.00
  HS02004870HS02004876    1.00   0.00  0.00  0.00  0.99  0.00  0.00  0.00  0.95  0.00
  HS02004842HS02004848    1.00   0.00  0.05  0.00  0.95  0.00  0.00  0.00  0.54  0.00
  HS02004837HS02004842    1.00   0.00  0.00  0.00  1.00  0.00  0.00  0.00  0.11  0.00
  HS02004830HS02004837    1.00   0.00  0.00  0.00  1.00  0.00  0.00  0.00  0.99  0.00
  HS02004824HS02004830    1.00   0.00  0.00  0.00  1.00  0.00  0.00  0.00  0.01  0.00
  HS02004817HS02004824    1.00   0.00  0.00  0.00  1.00  0.00  0.00  0.00  0.97  0.00
  HS02004770HS02004777    1.00   0.00  0.05  0.00  0.95  0.00  0.00  0.00  0.03  0.00
  HS02004799HS02004480    1.00   0.00  0.01  0.00  0.94  0.00  0.04  0.00  0.00  0.00
  HS02004792HS02004799    1.00   0.00  0.00  0.00  1.00  0.00  0.00  0.00  0.98  0.00
  HS02004788HS02004792    1.00   0.00  0.00  0.00  1.00  0.00  0.00  0.00  0.98  0.00
  HS02004785HS02004788    1.00   0.00  0.00  0.00  1.00  0.00  0.00  0.00  0.00  0.00
  HS02004777HS02004785    1.00   0.00  0.00  0.00  1.00  0.00  0.00  0.00  0.12  0.00
  HS02004480HS02004478    1.00   0.05  0.00  0.00  0.61  0.00  0.00  0.34  0.00  0.00
  HS02004479HS02004480    1.00   0.01  0.00  0.00  0.99  0.00  0.00  0.00  0.12  0.00
  HS02004862HS02004870    1.00   0.00  0.00  0.00  1.00  0.00  0.00  0.00  0.04  0.00
  HS02004848HS02004852    1.00   0.05  0.00  0.00  0.95  0.00  0.00  0.00  0.64  0.00
  HS02004856HS02004862    1.00   0.00  0.06  0.00  0.94  0.00  0.00  0.00  0.83  0.00
  HS02004852HS02004856    1.00   0.05  0.00  0.00  0.95  0.00  0.00  0.00  0.81  0.00
  HS02004802HS02004478    1.00   0.05  0.00  0.00  0.95  0.00  0.00  0.00  0.02  0.00
  HS02004478WS02006287    1.00   0.06  0.00  0.00  0.68  0.26  0.00  0.00  0.65  0.00
  HS02004817HS02004807    1.00   0.00  0.05  0.00  0.95  0.00  0.00  0.00  0.01  0.00
  HS02004807HS02004802    1.00   0.05  0.00  0.00  0.95  0.00  0.00  0.01  0.00  0.00
  YS02001759YS02001757    1.00   0.00  0.00  0.00  1.00  0.00  0.00  0.00  0.16  0.00
  YS02001762YS02001759    1.00   0.00  0.00  0.00  1.00  0.00  0.00  0.00  0.03  0.00
  YS02001765YS02001762    1.00   0.00  0.00  0.00  1.00  0.00  0.00  0.00  0.14  0.00
  YS02001770YS02001767    1.00   0.00  0.00  0.00  1.00  0.00  0.00  0.00  0.00  0.00
  YS02001774YS02001770    1.00   0.00  0.05  0.00  0.95  0.00  0.00  0.00  0.03  0.00
  YS02001779YS02001774    1.00   0.00  0.00  0.00  1.00  0.00  0.00  0.00  0.19  0.00
  YS02001649YS02001757    1.00   0.00  0.00  0.00  1.00  0.00  0.00  0.00  0.16  0.00
  YS02001767YS02001765    1.00   0.00  0.00  0.00  1.00  0.00  0.00  0.00  0.00  0.00
  YS02006561YS02001783    1.00   0.07  0.00  0.00  0.38  0.55  0.00  0.00  0.46  0.00
  YS02001783YS02001784    1.00   0.00  0.07  0.00  0.93  0.00  0.00  0.00  0.01  0.00
  YS02001784YS02001785    1.00   0.00  0.00  0.00  1.00  0.00  0.00  0.00  0.18  0.00
  YS02001788YS02001790    1.00   0.00  0.00  0.00  0.45  0.55  0.00  0.00  0.34  0.00
  YS02001790YS02001791    1.00   0.00  0.00  0.00  0.38  0.62  0.00  0.00  0.41  0.00
  YS02001791YS02001793    1.00   0.00  0.00  0.00  0.41  0.59  0.00  0.00  0.03  0.00
  YS02001910YS02001907    1.00   0.00  0.00  0.00  0.99  0.00  0.00  0.01  0.12  0.00
  YS02001786YS02001788    1.00   0.00  0.00  0.00  0.46  0.54  0.00  0.00  0.00  0.00
  YS02001915YS02001910    1.00   0.00  0.00  0.00  0.99  0.01  0.00  0.00  0.16  0.00
  YS02001918YS02001915    1.00   0.00  0.00  0.00  0.99  0.01  0.00  0.00  0.54  0.00
  YS02001923YS02001920    1.00   0.00  0.00  0.00  1.00  0.00  0.00  0.00  0.82  0.00
  YS02001926YS02001923    1.00   0.00  0.03  0.00  0.19  0.00  0.78  0.00  0.00  0.00
  YS02001929YS02001926    1.00   0.00  0.05  0.00  0.95  0.00  0.00  0.00  0.75  0.00
  YS02001920YS02001918    1.00   0.00  0.00  0.00  1.00  0.00  0.00  0.00  0.00  0.00
  YS02001629YS02163301    1.00   0.05  0.00  0.00  0.94  0.00  0.00  0.00  0.00  0.00
  YS02001619YS02001622    1.00   0.05  0.00  0.00  0.95  0.00  0.00  0.00  0.00  0.00
  YS02001622YS02001625    1.00   0.05  0.00  0.00  0.95  0.00  0.00  0.00  0.05  0.00
  YS02001625YS02001629    1.00   0.05  0.02  0.00  0.91  0.00  0.02  0.00  0.00  0.00
  YS02163301YS02001633    1.00   0.00  0.05  0.00  0.95  0.00  0.00  0.00  0.00  0.00
  YS02163601YS02164001    1.00   0.00  0.03  0.00  0.97  0.00  0.00  0.00  0.00  0.00
  YS02164001YS02001641    1.00   0.00  0.03  0.00  0.97  0.00  0.00  0.00  0.06  0.00
  YS02001641YS02001644    1.00   0.00  0.00  0.00  1.00  0.00  0.00  0.00  0.00  0.00
  YS02001647YS02001649    1.00   0.00  0.06  0.00  0.94  0.00  0.00  0.00  0.01  0.00
  YS02006553YS02006556    1.00   0.00  0.00  0.00  1.00  0.00  0.00  0.00  0.03  0.00
  YS02006556YS02006558    1.00   0.00  0.00  0.00  1.00  0.00  0.00  0.00  0.00  0.00
  YSB6556YSB1171          1.00   0.02  0.03  0.00  0.95  0.00  0.00  0.00  0.00  0.00
  YS02001907YS02006553    1.00   0.00  0.01  0.00  0.99  0.00  0.00  0.00  0.00  0.00
  YS02006558YS02006561    1.00   0.07  0.00  0.00  0.17  0.76  0.00  0.00  0.49  0.00
  YS02001633YS02163601    1.00   0.00  0.00  0.00  1.00  0.00  0.00  0.00  0.15  0.00
  YS02001644YS02001647    1.00   0.00  0.06  0.00  0.94  0.00  0.00  0.00  0.00  0.00
  YS02001745YS02001748    1.00   0.00  0.00  0.00  0.88  0.01  0.00  0.12  0.04  0.00
  YS02001748YS02001751    1.00   0.00  0.00  0.00  0.96  0.04  0.00  0.00  0.15  0.00
  YS02001751YS02001754    1.00   0.00  0.00  0.00  0.92  0.00  0.00  0.07  0.02  0.00
  YS02001754YS02001757    1.00   0.00  0.00  0.00  1.00  0.00  0.00  0.00  0.18  0.00
  YS02001882YS02001884    1.00   0.05  0.00  0.00  0.94  0.00  0.00  0.00  0.00  0.00
  YS02001884YS02001887    1.00   0.02  0.02  0.00  0.96  0.00  0.00  0.00  0.00  0.00
  YS02001890YS02001895    1.00   0.00  0.06  0.00  0.94  0.00  0.00  0.00  0.00  0.00
  YS02001895YS02001898    1.00   0.06  0.00  0.00  0.93  0.00  0.01  0.00  0.00  0.00
  YS02001898YS02001901    1.00   0.06  0.00  0.00  0.94  0.00  0.00  0.00  0.01  0.00
  YS02001901YS02001904    1.00   0.06  0.00  0.00  0.94  0.00  0.00  0.00  0.00  0.00
  YS02001904YS02001907    1.00   0.00  0.06  0.00  0.94  0.00  0.00  0.00  0.00  0.00
  YS02001887YS02001890    1.00   0.00  0.00  0.00  0.99  0.00  0.01  0.00  0.00  0.00
  YS02001652YS02001649    1.00   0.00  0.00  0.00  1.00  0.00  0.00  0.00  0.17  0.00
  YS02001655YS02001652    1.00   0.00  0.00  0.00  0.93  0.00  0.00  0.07  0.02  0.00
  YS02001658YS02001655    1.00   0.00  0.05  0.00  0.91  0.04  0.00  0.00  0.10  0.00
  YS02001661YS02001658    1.00   0.05  0.00  0.00  0.88  0.07  0.00  0.00  0.11  0.00
  YS02001664YS02001661    1.00   0.05  0.00  0.00  0.90  0.06  0.00  0.00  0.20  0.00
  YSB1154YSB6556          1.00   0.05  0.00  0.00  0.95  0.00  0.00  0.00  0.02  0.00
  YSB1174YSB1171          1.00   0.02  0.01  0.00  0.96  0.00  0.00  0.00  0.00  0.00
  YSB1171HS02004479       1.00   0.02  0.00  0.00  0.98  0.00  0.00  0.01  0.10  0.00
  HS02004881HS02006253    1.00   0.02  0.00  0.00  0.37  0.03  0.00  0.57  0.23  0.00
  YS02001793JiankangQianchi    1.00   0.00  0.00  0.00  0.70  0.30  0.00  0.00  0.38  0.00
  YS02001757CaochengTiaoxuchi    1.00   0.00  0.09  0.00  0.91  0.00  0.00  0.00  0.00  0.00
  WSF200WS02003060        1.00   0.00  0.02  0.00  0.96  0.02  0.00  0.00  0.57  0.00
  1                       1.00   0.00  0.00  0.00  0.00  1.00  0.00  0.00  0.43  0.00
  
  
  *************************
  Conduit Surcharge Summary
  *************************
  
  ----------------------------------------------------------------------------
                                                           Hours        Hours 
                         --------- Hours Full --------   Above Full   Capacity
  Conduit                Both Ends  Upstream  Dnstream   Normal Flow   Limited
  ----------------------------------------------------------------------------
  WS02006229WS02006228        2.00      2.05      2.00      2.87         2.00
  WS02006256WS02006235        5.54      5.54      6.77      4.55         0.01
  WS02006253WS02006251        0.62      0.62      0.66      0.01         0.02
  WS02006252WS02006251        0.42      0.42      0.67      0.37         0.01
  WS02006251WS02006249        0.63      0.63      0.70      0.15         0.12
  WS02006249WS02006248        0.66      0.66      0.70      0.79         0.01
  WS02006248WS02006247        0.70      0.70      0.81      0.01         0.01
  WS02006247WS02006245        0.81      0.83      0.82      1.49         0.67
  WS02006245WS02006243        0.84      0.84      0.96      0.01         0.01
  WS02006243WS02006242        1.00      1.00      1.29      0.01         0.01
  WS02006242WS02006240        1.26      1.26      1.36      0.36         0.01
  WS02006240WS02006239        1.28      1.28      1.36      0.01         0.02
  WS02006239WS02006238        1.47      1.47      1.57      0.01         0.03
  WS02006238WS02006235        1.57      1.57      1.63      0.01         0.02
  WS02006235WS02006234        1.43      1.43      1.54      5.47         0.01
[...]
  YS02001770YS02001767        5.69      5.69      5.69      0.38         0.65
  YS02001774YS02001770        5.68      5.68      5.74      0.01         0.01
  YS02001779YS02001774        5.56      5.56      5.74      0.01         0.01
  YS02001649YS02001757        5.76      5.76      5.86      0.01         0.01
  YS02001767YS02001765        5.69      5.69      5.72      0.01         0.01
  YS02006561YS02001783        0.87      0.87      1.30      0.01         0.01
  YS02001783YS02001784        1.26      1.30      1.28      1.56         1.15
  YS02001784YS02001785        1.09      1.28      1.09      2.47         1.09
  YS02001788YS02001790        0.89      0.89      1.91      0.01         0.01
  YS02001790YS02001791        1.91      1.91      2.17      1.12         0.89
  YS02001791YS02001793        2.17      2.17      2.61      0.01         0.01
  YS02001910YS02001907        1.24      1.24      1.92      0.01         0.01
  YS02001786YS02001788        0.89      1.09      0.89      2.13         0.89
  YS02001915YS02001910        1.05      1.05      1.24      0.01         0.01
  YS02001918YS02001915        0.86      0.86      1.05      0.01         0.01
  YS02001923YS02001920        0.71      0.71      0.89      0.01         0.01
  YS02001920YS02001918        0.86      0.86      0.89      0.01         0.01
  YS02001629YS02163301        5.67      5.67      5.68      0.01         0.01
  YS02001619YS02001622        5.37      5.37      5.40      0.01         0.01
  YS02001622YS02001625        5.40      5.40      5.64      0.01         0.01
  YS02001625YS02001629        5.37      5.37      5.64      0.01         0.01
  YS02163301YS02001633        5.68      5.68      5.72      0.01         0.01
  YS02163601YS02164001        5.72      5.72      5.75      0.01         0.01
  YS02164001YS02001641        5.72      5.72      5.73      0.01         0.03
  YS02001641YS02001644        5.72      5.73      5.73      1.72         1.85
  YS02001647YS02001649        5.62      5.62      5.76      0.01         0.01
  YS02006553YS02006556        1.47      1.47      2.01      0.01         0.01
  YS02006556YS02006558        1.67      1.67      2.09      0.01         0.01
  YSB6556YSB1171              0.01      0.01      0.07      0.01         0.01
  YS02001907YS02006553        2.53      2.53      2.80      0.01         0.01
  YS02006558YS02006561        0.97      1.43      0.97      2.36         0.97
  YS02001633YS02163601        5.71      5.71      5.75      0.01         0.01
  YS02001644YS02001647        5.62      5.62      5.73      0.01         0.01
  YS02001745YS02001748        0.01      0.01      5.22      0.01         0.01
  YS02001748YS02001751        5.27      5.27      5.36      0.01         0.01
  YS02001751YS02001754        5.36      5.36      5.58      0.01         0.01
  YS02001754YS02001757        5.62      5.62      5.86      0.01         0.01
  YS02001882YS02001884        1.07      1.07      1.09      0.01         0.01
  YS02001884YS02001887        1.14      1.14      1.17      0.01         0.01
  YS02001890YS02001895        1.04      1.04      1.26      0.01         0.01
  YS02001895YS02001898        1.02      1.02      1.04      0.01         0.01
  YS02001898YS02001901        1.04      1.04      1.13      0.01         0.01
  YS02001901YS02001904        1.11      1.11      1.13      0.01         0.01
  YS02001904YS02001907        1.11      1.11      2.04      0.01         0.01
  YS02001887YS02001890        1.20      1.20      1.23      0.16         0.01
  YS02001652YS02001649        5.63      5.63      5.76      0.01         0.01
  YS02001655YS02001652        5.39      5.39      5.61      0.01         0.01
  YS02001658YS02001655        5.25      5.25      5.39      0.01         0.01
  YS02001661YS02001658        0.10      0.10      5.25      0.01         0.01
  YS02001664YS02001661        0.01      0.01      1.06      0.01         0.01
  HS02004881HS02006253        0.01      0.01      0.35      0.01         0.01
  YS02001793JiankangQianchi        2.50      2.50      4.58      0.01         0.01
  YS02001757CaochengTiaoxuchi        5.11      5.11      5.86      0.01         0.01
  
  
  ***************
  Pumping Summary
  ***************
  
  ---------------------------------------------------------------------------------------------------------
                                                  Min       Avg       Max     Total     Power    % Time Off
                        Percent   Number of      Flow      Flow      Flow    Volume     Usage    Pump Curve
  Pump                 Utilized   Start-Ups       LPS       LPS       LPS  10^6 ltr     Kw-hr    Low   High
  ---------------------------------------------------------------------------------------------------------
  CC-Pump-1               31.91           3      0.00    114.17    200.00     0.960      0.71    0.0    0.0
  CC-Pump-2               12.76           3      0.00    100.11    199.86     0.360      0.36    0.0    0.0
  JK-Pump-1               65.95           5      0.00    221.79    300.00     3.832     54.35    0.0    0.0
  JK-Pump-2               53.19           5      0.00    434.40    683.00     6.032     85.46    0.0   97.1
  XR-Pump-1               99.99           2      0.00     93.47     95.00     2.622     25.58    0.0    0.0
  XR-Pump-2               97.86           3      0.00     92.82     95.00     2.508     23.14    0.0    0.0
  XR-Pump-3               91.49           3      0.00     92.67     95.00     2.337     19.49    0.0    0.0
  XR-Pump-4               91.49           3      0.00     92.67     95.00     2.337     19.49    0.0    0.0
  
  
  ***************************
  Link Pollutant Load Summary
  ***************************
  
  ------------------------------------------------------------------------------------------
                                 COD            SS            TN            TP         NH4-N
  Link                            kg            kg            kg            kg            kg
  ------------------------------------------------------------------------------------------
  WS02003066WSF200           725.780      1359.004        19.771         1.776        10.513
  WS02006287WS02006284       319.446       608.037        10.314         1.015         5.678
  WS02006284WS02006280       319.915       608.799        10.359         1.021         5.707
  WS02006280WS02006229       319.865       608.693        10.357         1.020         5.705
  WS02006229WS02006228       708.213      1327.230        18.966         1.685        10.042
  WS02006256WS02006235       233.095       426.799         5.324         0.423         2.716
  WS02006253WS02006251        59.575       117.614         1.277         0.094         0.628
  WS02006252WS02006251       119.316       218.943         2.520         0.187         1.247
  WS02006251WS02006249       173.771       327.305         3.693         0.273         1.825
  WS02006249WS02006248       158.721       297.993         3.381         0.250         1.671
  WS02006248WS02006247       158.789       298.098         3.384         0.250         1.673
  WS02006247WS02006245       158.993       298.451         3.386         0.250         1.673
  WS02006245WS02006243       159.068       298.588         3.386         0.250         1.673
  WS02006243WS02006242       159.717       299.661         3.403         0.252         1.682
  WS02006242WS02006240       160.697       301.309         3.424         0.253         1.692
  WS02006240WS02006239       161.930       303.382         3.455         0.256         1.709
  WS02006239WS02006238       164.083       306.891         3.531         0.263         1.750
  WS02006238WS02006235       165.259       308.659         3.578         0.268         1.778
  WS02006235WS02006234       387.759       717.311         8.611         0.666         4.340
  WS02006234WS02006232       388.216       718.096         8.627         0.667         4.349
  WS02006232WS02006231       388.039       717.794         8.621         0.667         4.346
  WS02006231WS02006230       387.994       717.758         8.620         0.667         4.345
  WS02006230WS02006229       388.509       718.745         8.626         0.667         4.347
  WS02006228WS02006109       708.184      1327.169        18.959         1.684        10.037
  WS02006116WS02004401       727.731      1362.350        19.887         1.789        10.582
  WS02006115WS02006116       727.894      1362.609        19.901         1.791        10.592
  WS02006113WS02006111       716.055      1339.673        19.716         1.779        10.511
  WS02006112WS02006115       728.094      1362.892        19.925         1.794        10.607
  WS02006111WS02006112       716.324      1340.241        19.717         1.778        10.510
  WS02006110WS02006113       716.221      1339.978        19.730         1.780        10.519
  WS02006109WS02006110       716.546      1340.502        19.767         1.785        10.543
  WS02004411WS02004412       726.985      1360.950        19.855         1.786        10.564
  WS02004401WS02004402       727.503      1361.996        19.864         1.786        10.568
  WS02004413WS02003067       725.961      1359.354        19.779         1.777        10.517
  WS02004412WS02004413       726.707      1360.525        19.832         1.783        10.550
  WS02004410WS02004411       727.211      1361.332        19.871         1.788        10.574
  WS02004409WS02004410       727.457      1361.731        19.890         1.790        10.585
  WS02004407WS02004409       727.600      1361.987        19.898         1.791        10.591
  WS02004406WS02004407       727.660      1362.152        19.895         1.791        10.589
  WS02004405WS02004406       728.222      1363.096        19.942         1.796        10.617
  WS02004404WS02004405       728.058      1362.863        19.922         1.794        10.605
  WS02004403WS02004404       727.080      1361.309        19.826         1.782        10.545
  WS02004402WS02004403       727.292      1361.641        19.847         1.784        10.558
  WS02004139WS02001211      1370.212      2275.467       111.159        13.568        68.517
  WS02004138WS02004139      1376.363      2285.748       111.632        13.625        68.807
  WS02003067WS02003066       725.889      1359.188        19.776         1.777        10.516
  WS02001213WS02003059      1403.916      2328.453       114.645        14.008        70.707
  WS02001212WS02001213      1412.867      2343.289       115.370        14.096        71.154
  WS02001211WS02001212      1414.702      2346.288       115.527        14.115        71.251
  WS02003072WS02003073      2231.668      3849.895       144.429        17.039        87.488
  WS02003069WS02003072      2236.347      3857.431       144.834        17.089        87.739
  WS02003060WS02003069      2238.546      3861.134       144.986        17.107        87.831
  WS02003059WS02003060      1401.061      2323.610       114.445        13.984        70.585
  HS02004901HS02004770        13.094        25.473         0.248         0.019         0.116
  HS02004876HS02004881        45.511        90.337         0.999         0.073         0.491
  HS02004870HS02004876        34.380        68.099         0.798         0.060         0.395
  HS02004842HS02004848         6.456        12.343         0.134         0.009         0.062
  HS02004837HS02004842        11.055        19.635         0.603         0.068         0.356
  HS02004830HS02004837        70.295       122.722         4.643         0.552         2.827
  HS02004824HS02004830        71.066       123.976         4.715         0.561         2.871
  HS02004817HS02004824        97.158       176.397         5.254         0.596         3.134
  HS02004770HS02004777        49.660        97.708         1.021         0.069         0.472
  HS02004799HS02004480       162.310       310.805         4.263         0.379         2.209
  HS02004792HS02004799       147.264       280.100         4.028         0.367         2.105
  HS02004788HS02004792        82.811       157.674         2.666         0.255         1.440
  HS02004785HS02004788        51.117       100.040         1.172         0.089         0.567
  HS02004777HS02004785        50.443        98.936         1.112         0.081         0.530
  HS02004480HS02004478       204.801       395.138         4.971         0.429         2.543
  HS02004479HS02004480        46.128        90.113         1.037         0.091         0.538
  HS02004862HS02004870        25.797        50.335         0.628         0.050         0.314
  HS02004848HS02004852        10.251        19.884         0.210         0.014         0.097
  HS02004856HS02004862        17.523        34.747         0.350         0.023         0.164
  HS02004852HS02004856        10.255        19.888         0.210         0.014         0.097
  HS02004802HS02004478       115.329       214.027         5.397         0.592         3.168
  HS02004478WS02006287       319.657       608.403        10.331         1.017         5.689
  HS02004817HS02004807        95.850       174.297         5.129         0.580         3.057
  HS02004807HS02004802       115.587       214.431         5.429         0.596         3.189
  YS02001759YS02001757       311.187       572.117         6.199         0.432         3.030
  YS02001762YS02001759       179.078       329.865         3.719         0.263         1.835
  YS02001765YS02001762       180.558       333.496         3.766         0.267         1.861
  YS02001770YS02001767       184.182       342.717         3.688         0.250         1.796
  YS02001774YS02001770       304.422       588.133         5.884         0.392         2.846
  YS02001779YS02001774       303.850       587.027         5.971         0.406         2.906
  YS02001649YS02001757       390.016       707.491         7.895         0.540         3.811
  YS02001767YS02001765       182.525       338.021         3.816         0.271         1.886
  YS02006561YS02001783      1033.889      1917.352        21.646         1.615        10.769
  YS02001783YS02001784      1033.797      1917.218        21.642         1.615        10.767
  YS02001784YS02001785      1041.142      1928.991        22.355         1.704        11.213
  YS02001788YS02001790      1041.803      1930.096        22.429         1.713        11.259
  YS02001790YS02001791      1042.918      1931.950        22.530         1.726        11.323
  YS02001791YS02001793      1042.989      1932.085        22.529         1.726        11.322
  YS02001910YS02001907       391.231       721.627         9.385         0.718         4.808
  YS02001786YS02001788      1041.373      1929.399        22.384         1.708        11.231
  YS02001915YS02001910       391.294       721.724         9.337         0.711         4.776
  YS02001918YS02001915       186.148       328.379         5.122         0.466         2.758
  YS02001923YS02001920       165.523       295.004         3.163         0.222         1.535
  YS02001926YS02001923       164.478       293.249         3.098         0.214         1.495
  YS02001929YS02001926       164.247       292.865         3.066         0.210         1.475
  YS02001920YS02001918       185.296       326.630         5.075         0.461         2.730
  YS02001629YS02163301        96.121       169.968         2.029         0.131         0.946
  YS02001619YS02001622       175.886       321.158         3.602         0.236         1.684
  YS02001622YS02001625       174.699       319.270         3.573         0.234         1.671
  YS02001625YS02001629        97.216       171.761         2.053         0.132         0.957
  YS02163301YS02001633        96.466       170.803         2.031         0.132         0.948
  YS02163601YS02164001       405.839       733.370         7.901         0.562         3.785
  YS02164001YS02001641       405.322       732.495         7.881         0.560         3.773
  YS02001641YS02001644       405.369       732.494         7.876         0.560         3.771
  YS02001647YS02001649       497.778       913.909         9.981         0.689         4.785
  YS02006553YS02006556       699.883      1287.623        15.018         1.149         7.555
  YS02006556YS02006558       699.866      1287.580        14.990         1.145         7.536
  YSB6556YSB1171              26.523        51.969         0.537         0.045         0.272
  YS02001907YS02006553       699.996      1287.855        15.026         1.150         7.561
  YS02006558YS02006561      1033.909      1917.391        21.646         1.615        10.769
  YS02001633YS02163601       406.543       734.461         7.881         0.558         3.769
  YS02001644YS02001647       502.931       923.583        10.058         0.695         4.820
  YS02001745YS02001748       250.434       468.115         5.537         0.385         2.757
  YS02001748YS02001751       248.272       464.035         5.571         0.394         2.788
  YS02001751YS02001754       247.386       462.565         5.564         0.395         2.787
  YS02001754YS02001757       248.130       463.674         5.728         0.417         2.894
  YS02001882YS02001884         2.643         4.547         0.054         0.004         0.027
  YS02001884YS02001887         6.698        11.860         0.132         0.010         0.066
  YS02001890YS02001895       451.046       846.595         8.303         0.624         4.050
  YS02001895YS02001898       450.900       846.411         8.297         0.624         4.047
  YS02001898YS02001901       450.674       846.018         8.292         0.623         4.044
  YS02001901YS02001904       450.566       845.886         8.299         0.625         4.049
  YS02001904YS02001907       450.791       846.226         8.353         0.632         4.084
  YS02001887YS02001890       468.343       880.899         8.647         0.653         4.223
  YS02001652YS02001649       204.802       380.101         4.129         0.297         1.936
  YS02001655YS02001652       205.298       380.917         4.142         0.298         1.942
  YS02001658YS02001655       204.742       380.045         4.054         0.286         1.885
  YS02001661YS02001658       208.284       386.380         4.125         0.291         1.918
  YS02001664YS02001661       218.815       403.410         4.368         0.308         2.029
  YSB1154YSB6556              26.085        51.271         0.486         0.038         0.239
  YSB1174YSB1171              18.022        35.564         0.362         0.029         0.181
  YSB1171HS02004479           46.094        90.059         1.040         0.092         0.541
  HS02004881HS02006253        51.526       102.622         1.109         0.080         0.544
  YS02001793JiankangQianchi      1043.165      1932.238        22.543         1.727        11.330
  YS02001757CaochengTiaoxuchi       484.462       885.698        10.178         0.740         5.018
  WSF200WS02003060           726.144      1359.571        19.799         1.779        10.530
  1                         2237.873      3859.108       145.171        17.134        87.958
  CC-Pump-1                   86.016       157.751         1.804         0.133         0.890
  CC-Pump-2                   32.867        60.487         0.686         0.050         0.339
  JK-Pump-1                  277.621       512.280         6.172         0.484         3.130
  JK-Pump-2                  484.269       902.499        10.021         0.746         4.977
  XR-Pump-1                  382.681       633.233        31.591         3.866        19.502
  XR-Pump-2                  355.145       589.175        28.948         3.536        17.850
  XR-Pump-3                  321.095       534.689        25.697         3.130        15.820
  XR-Pump-4                  321.095       534.689        25.697         3.130        15.820
  

  Analysis begun on:  Thu Jul 15 10:56:36 2021
  Analysis ended on:  Thu Jul 15 10:56:38 2021
  Total elapsed time: 00:00:02