
  EPA STORM WATER MANAGEMENT MODEL - VERSION 5.1 (Build 5.3.0.dev0)
  --------------------------------------------------------------

  WARNING 04: minimum elevation drop used for Conduit WS02004404WS02004405
  WARNING 03: negative offset ignored for Link YS02001904YS02001907
  
  *********************************************************
  NOTE: The summary statistics displayed in this report are
  based on results found at every computational time step,  
  not just on results from each reporting time step.
  *********************************************************
  
  ****************
  Analysis Options
  ****************
  Flow Units ............... LPS
  Process Models:
    Rainfall/Runoff ........ YES
    RDII ................... NO
    Snowmelt ............... NO
    Groundwater ............ NO
    Flow Routing ........... YES
    Ponding Allowed ........ NO
    Water Quality .......... YES
  Infiltration Method ...... HORTON
  Flow Routing Method ...... DYNWAVE
  Surcharge Method ......... EXTRAN
  Starting Date ............ 08/28/2015 08:00:00
  Ending Date .............. 08/28/2015 15:50:00
  Antecedent Dry Days ...... 8.0
  Report Time Step ......... 00:01:00
  Wet Time Step ............ 00:01:00
  Dry Time Step ............ 00:01:00
  Routing Time Step ........ 5.00 sec
  Variable Time Step ....... YES
  Maximum Trials ........... 8
  Number of Threads ........ 4
  Head Tolerance ........... 0.001500 m
  
  
  **************************        Volume         Depth
  Runoff Quantity Continuity     hectare-m            mm
  **************************     ---------       -------
  Total Precipitation ......        10.887        23.836
  Evaporation Loss .........         0.000         0.000
  Infiltration Loss ........         1.411         3.089
  Surface Runoff ...........         8.292        18.155
  Final Storage ............         1.186         2.596
  Continuity Error (%) .....        -0.016
  
  
  **************************           COD            SS            TN            TP         NH4-N
  Runoff Quality Continuity             kg            kg            kg            kg            kg
  **************************    ----------    ----------    ----------    ----------    ----------
  Initial Buildup ..........     41378.656     70582.865      1804.177       168.684      1032.807
  Surface Buildup ..........        41.425        91.431         2.568         0.227         1.442
  Wet Deposition ...........         0.000         0.000         0.000         0.000         0.000
  Sweeping Removal .........         0.000         0.000         0.000         0.000         0.000
  Infiltration Loss ........       164.554       320.127         3.263         0.236         1.574
  BMP Removal ..............         0.000         0.000         0.000         0.000         0.000
  Surface Runoff ...........      9366.500     18283.806       183.722        12.955        88.133
  Remaining Buildup ........     31885.964     52064.522      1619.692       155.715       944.511
  Continuity Error (%) .....         0.007         0.008         0.004         0.003         0.003
  
  
  **************************        Volume        Volume
  Flow Routing Continuity        hectare-m      10^6 ltr
  **************************     ---------     ---------
  Dry Weather Inflow .......         0.616         6.165
  Wet Weather Inflow .......         8.290        82.902
  Groundwater Inflow .......         0.000         0.000
  RDII Inflow ..............         0.000         0.000
  External Inflow ..........         0.102         1.024
  External Outflow .........         2.197        21.966
  Flooding Loss ............         6.328        63.277
  Evaporation Loss .........         0.000         0.000
  Exfiltration Loss ........         0.000         0.000
  Initial Stored Volume ....         0.076         0.761
  Final Stored Volume ......         0.677         6.767
  Continuity Error (%) .....        -1.275
  
  
  **************************           COD            SS            TN            TP         NH4-N
  Quality Routing Continuity            kg            kg            kg            kg            kg
  **************************    ----------    ----------    ----------    ----------    ----------
  Dry Weather Inflow .......      1541.201      2465.922       147.955        18.494        92.472
  Wet Weather Inflow .......      9365.392     18281.884       183.697        12.953        88.121
  Groundwater Inflow .......         0.000         0.000         0.000         0.000         0.000
  RDII Inflow ..............         0.000         0.000         0.000         0.000         0.000
  External Inflow ..........       183.418       293.469        17.608         2.201        11.005
  External Outflow .........      2744.705      5029.728       132.762        14.720        77.818
  Flooding Loss ............      7598.723     14670.205       188.381        16.092        97.920
  Exfiltration Loss ........         0.000         0.000         0.000         0.000         0.000
  Mass Reacted .............         0.000         0.000         0.000         0.000         0.000
  Initial Stored Mass ......         0.000         0.000         0.000         0.000         0.000
  Final Stored Mass ........       652.436      1190.356        25.018         2.560        14.187
  Continuity Error (%) .....         0.849         0.718         0.888         0.821         0.873
  
  
  *************************
  Highest Continuity Errors
  *************************
  Node HS02004842 (7.72%)
  Node JK-storage (-7.70%)
  Node YS02001884 (7.60%)
  Node HS02004817 (1.58%)
  Node YSB1171 (1.37%)
  
  
  ***************************
  Time-Step Critical Elements
  ***************************
  Link WS02006252WS02006251 (52.98%)
  Link WS02006280WS02006229 (14.42%)
  Link WS02006238WS02006235 (12.87%)
  Link YS02006556YS02006558 (2.94%)
  Link YS02001791YS02001793 (1.70%)
  
  
  ********************************
  Highest Flow Instability Indexes
  ********************************
  Link WS02006113WS02006111 (42)
  Link YS02163601YS02164001 (26)
  Link WS02006111WS02006112 (25)
  Link YS02163301YS02001633 (25)
  Link YS02001619YS02001622 (25)
  
  
  *************************
  Routing Time Step Summary
  *************************
  Minimum Time Step           :     0.50 sec
  Average Time Step           :     1.33 sec
  Maximum Time Step           :     5.00 sec
  Percent in Steady State     :    -0.00
  Average Iterations per Step :     3.55
  Percent Not Converging      :     9.85
  
  
  ***************************
  Subcatchment Runoff Summary
  ***************************
  
  ------------------------------------------------------------------------------------------------------------------------------
                            Total      Total      Total      Total     Imperv       Perv      Total       Total     Peak  Runoff
                           Precip      Runon       Evap      Infil     Runoff     Runoff     Runoff      Runoff   Runoff   Coeff
  Subcatchment                 mm         mm         mm         mm         mm         mm         mm    10^6 ltr      LPS
  ------------------------------------------------------------------------------------------------------------------------------
  sub0                      23.84       0.00       0.00       0.77      22.12       0.90      23.02        0.02     5.06   0.966
  sub1                      23.84       0.00       0.00       1.33      21.12       1.29      22.41        0.15    33.98   0.940
  sub2                      23.84       0.00       0.00       5.60      14.93       3.22      18.15        0.17    32.49   0.761
  sub3                      23.84       0.00       0.00       5.94      14.89       2.88      17.77        0.40    70.76   0.745
  sub4                      23.84       0.00       0.00       1.46      20.95       1.16      22.11        0.46    81.55   0.928
  sub5                      23.84       0.00       0.00       0.82      22.07       0.85      22.92        0.26    59.56   0.962
  sub7                      23.84       0.00       0.00       1.03      21.63       1.11      22.74        0.08    19.22   0.954
  sub8                      23.84       0.00       0.00       1.05      21.62       1.10      22.72        0.15    35.26   0.953
  sub9                      23.84       0.00       0.00       1.05      21.62       1.10      22.71        0.11    26.33   0.953
  sub10                     23.84       0.00       0.00       0.94      21.84       0.97      22.81        0.25    58.74   0.957
  sub11                     23.84       0.00       0.00       0.92      21.86       0.99      22.85        0.27    65.28   0.959
  sub12                     23.84       0.00       0.00       1.50      20.69       1.60      22.29        0.19    51.10   0.935
  sub14                     23.84       0.00       0.00       1.05      21.61       1.09      22.71        0.22    51.81   0.953
  sub15                     23.84       0.00       0.00       4.05      16.62       3.10      19.72        0.34    74.01   0.827
  sub16                     23.84       0.00       0.00       4.23      15.93       3.63      19.56        0.20    48.29   0.821
  sub17                     23.84       0.00       0.00       4.13      16.17       3.50      19.67        0.17    39.49   0.825
  sub22                     23.84       0.00       0.00       6.08      13.55       4.17      17.72        1.12   235.47   0.743
  sub23                     23.84       0.00       0.00       5.01      14.97       3.81      18.78        0.90   197.86   0.788
  sub60                     23.84       0.00       0.00       2.13      18.82       0.73      19.55        5.93   667.30   0.820
  sub61                     23.84       0.00       0.00       3.01      18.52       1.04      19.56        6.03   717.95   0.821
  sub62                     23.84       0.00       0.00       1.25      20.31       0.65      20.96        6.44   751.14   0.880
  sub63                     23.84       0.00       0.00       5.57      16.04       1.34      17.38        5.26   638.31   0.729
  sub64                     23.84       0.00       0.00       2.78      18.11       0.79      18.90        5.75   644.78   0.793
  sub65                     23.84       0.00       0.00       2.36      18.46       0.74      19.20        5.90   658.64   0.806
  sub66                     23.84       0.00       0.00       5.92      15.37       0.99      16.36        5.02   574.80   0.686
  sub67                     23.84       0.00       0.00       1.18      20.92       0.73      21.65        6.68   814.16   0.908
  sub68                     23.84       0.00       0.00       2.35      19.35       0.99      20.34        6.25   750.28   0.853
  sub69                     23.84       0.00       0.00       2.36      19.61       1.21      20.83        4.87   655.18   0.874
  sub70                     23.84      21.26       0.00       9.95      28.09       5.22      33.30        7.62   861.91   0.738
  sub71                     23.84       0.00       0.00       1.29      20.01       0.62      20.63        4.87   557.88   0.866
  sub72                     23.84       0.00       0.00       1.26      17.48       0.41      17.89        3.64   352.81   0.750
  1                         23.84      32.43       0.00       1.37      34.56      12.51      47.07       11.06  1042.57   0.837
  2                         23.84       0.00       0.00       3.02       5.81       5.77      11.58        4.63   438.27   0.486
  
  
  ****************************
  Subcatchment Washoff Summary
  ****************************
  
  ------------------------------------------------------------------------------------------
                                 COD            SS            TN            TP         NH4-N
  Subcatchment                    kg            kg            kg            kg            kg
  ------------------------------------------------------------------------------------------
  sub0                         5.447        10.648         0.101         0.009         0.050
  sub1                        23.688        48.042         0.463         0.033         0.225
  sub2                        16.966        34.031         0.358         0.025         0.167
  sub3                        41.902        83.507         0.867         0.061         0.406
  sub4                        55.504       114.752         1.120         0.071         0.542
  sub5                        53.600       106.723         1.016         0.079         0.498
  sub7                        11.854        24.343         0.233         0.016         0.114
  sub8                        17.650        37.231         0.360         0.022         0.174
  sub9                        15.191        31.538         0.304         0.020         0.147
  sub10                       44.044        88.979         0.851         0.062         0.416
  sub11                       42.563        86.978         0.834         0.059         0.406
  sub12                       37.050        74.157         0.712         0.055         0.347
  sub14                       32.601        66.963         0.643         0.044         0.313
  sub15                       47.434        94.407         0.941         0.071         0.448
  sub16                       30.857        61.246         0.608         0.047         0.290
  sub17                       28.315        55.641         0.547         0.044         0.262
  sub22                      161.087       316.749         3.138         0.242         1.488
  sub23                       88.506       179.789         1.886         0.128         0.879
  sub60                      597.605      1177.766        11.858         0.760         5.721
  sub61                      735.660      1436.196        13.939         0.989         6.759
  sub62                      737.985      1463.009        14.530         0.959         7.028
  sub63                      558.710      1076.727        11.142         0.807         5.242
  sub64                      776.597      1477.973        14.527         1.087         6.999
  sub65                      790.465      1509.997        14.865         1.095         7.170
  sub66                      450.962       868.123         9.087         0.615         4.293
  sub67                     1073.899      2091.719        20.029         1.513         9.761
  sub68                      789.681      1552.112        15.327         1.072         7.390
  sub69                      691.072      1362.692        13.304         0.964         6.425
  sub70                     1288.654      2534.730        26.762         1.929        12.763
  sub71                      488.493       980.368         9.974         0.604         4.804
  sub72                      441.504       833.180         8.283         0.587         4.008
  1                         1052.298      2081.048        22.042         1.588        10.427
  2                          118.381       219.864         3.138         0.193         1.360
  ------------------------------------------------------------------------------------------
  System                   11346.226     22181.229       223.788        15.848       107.320
  
  
  ******************
  Node Depth Summary
  ******************
  
  ---------------------------------------------------------------------------------
                                 Average  Maximum  Maximum  Time of Max    Reported
                                   Depth    Depth      HGL   Occurrence   Max Depth
  Node                 Type       Meters   Meters   Meters  days hr:min      Meters
  ---------------------------------------------------------------------------------
  WS02001211           JUNCTION     0.78     0.86     5.69     0  01:45        0.86
  WS02001212           JUNCTION     0.49     0.59     5.65     0  01:46        0.59
  WS02001213           JUNCTION     0.73     0.86     5.63     0  01:44        0.86
  WS02003069           JUNCTION     0.53     0.73     5.32     0  01:45        0.73
  WS02003072           JUNCTION     0.59     0.77     5.14     0  01:46        0.77
  WS02003073           JUNCTION     0.36     0.49     4.55     0  01:46        0.49
  WS02003060           JUNCTION     0.47     0.65     5.58     0  01:45        0.65
  WS02003066           JUNCTION     0.25     0.40     5.95     0  01:35        0.40
  WS02003059           JUNCTION     0.78     0.92     5.61     0  01:45        0.92
  WS02003067           JUNCTION     0.61     0.84     6.16     0  01:34        0.84
  WS02004401           JUNCTION     0.76     1.46     7.46     0  01:32        1.29
  WS02004402           JUNCTION     0.78     1.41     7.37     0  01:32        1.27
  WS02004403           JUNCTION     0.80     1.37     7.30     0  01:32        1.24
  WS02004404           JUNCTION     0.87     1.39     7.24     0  01:32        1.28
  WS02004406           JUNCTION     0.86     1.25     7.08     0  01:32        1.18
  WS02004409           JUNCTION     0.56     1.04     6.81     0  01:35        1.02
  WS02004410           JUNCTION     0.57     1.01     6.73     0  01:35        1.00
  WS02004411           JUNCTION     0.58     0.97     6.65     0  01:35        0.97
  WS02004412           JUNCTION     0.59     0.94     6.58     0  01:35        0.93
  WS02004413           JUNCTION     0.75     1.05     6.52     0  01:35        1.04
  WS02004405           JUNCTION     0.86     1.36     7.21     0  01:32        1.24
  WS02006109           JUNCTION     0.88     1.91     8.53     0  01:33        1.86
  WS02006110           JUNCTION     0.84     1.79     8.37     0  01:32        1.63
  WS02006111           JUNCTION     0.31     1.28     7.98     0  01:32        1.00
  WS02006112           JUNCTION     0.95     1.90     7.78     0  01:32        1.65
  WS02006113           JUNCTION     0.41     1.43     8.32     0  01:32        1.07
  WS02006115           JUNCTION     0.66     1.53     7.67     0  01:32        1.29
  WS02006116           JUNCTION     0.74     1.53     7.57     0  01:32        1.32
  WS02006230           JUNCTION     0.90     2.14     8.88     0  01:33        2.11
  WS02006231           JUNCTION     0.65     1.74     8.87     0  01:33        1.72
  WS02006232           JUNCTION     0.78     1.81     8.85     0  01:34        1.80
  WS02006234           JUNCTION     0.71     1.68     8.84     0  01:34        1.66
  WS02006235           JUNCTION     0.74     1.67     8.84     0  01:33        1.64
  WS02006238           JUNCTION     0.77     1.69     8.83     0  01:34        1.67
  WS02006240           JUNCTION     0.66     1.50     8.80     0  01:34        1.47
  WS02006242           JUNCTION     0.70     1.51     8.77     0  01:34        1.49
  WS02006243           JUNCTION     0.58     1.33     8.75     0  01:33        1.31
  WS02006245           JUNCTION     0.55     1.24     8.73     0  01:34        1.23
  WS02006247           JUNCTION     0.55     1.21     8.71     0  01:34        1.20
  WS02006248           JUNCTION     0.49     1.10     8.69     0  01:32        1.10
  WS02006249           JUNCTION     0.50     1.09     8.69     0  01:32        1.09
  WS02006239           JUNCTION     0.72     1.61     8.82     0  01:34        1.59
  WS02006251           JUNCTION     0.48     1.96     9.63     0  01:32        1.19
  WS02006252           JUNCTION     0.30     1.50     9.74     0  01:32        0.72
  WS02006253           JUNCTION     0.51     1.94     9.58     0  01:32        1.28
  WS02006256           JUNCTION     1.82     2.35     9.28     0  00:00        2.35
  WS02004138           JUNCTION     0.19     0.20     7.45     0  00:00        0.19
  WS02004139           JUNCTION     0.73     0.80     5.71     0  01:45        0.80
  WS02004407           JUNCTION     0.25     0.42     6.74     0  01:35        0.42
  WS02006228           JUNCTION     0.90     2.11     8.76     0  01:33        2.08
  WS02006229           JUNCTION     0.90     2.21     8.90     0  01:33        2.17
  WS02006280           JUNCTION     0.09     0.51     8.78     0  01:33        0.50
  WS02006284           JUNCTION     0.39     0.72     9.12     0  01:34        0.72
  WS02006287           JUNCTION     0.13     0.46     9.42     0  01:34        0.46
  WSF200               JUNCTION     0.25     0.45     5.68     0  01:40        0.45
  HS02004901           JUNCTION     0.15     0.43    10.25     0  01:33        0.43
  HS02004881           JUNCTION     0.01     0.09     9.12     0  01:32        0.06
  HS02004876           JUNCTION     0.05     0.19     9.22     0  01:32        0.19
  HS02004870           JUNCTION     0.02     0.11     9.40     0  01:35        0.11
  HS02004862           JUNCTION     0.03     0.13     9.51     0  01:35        0.13
  HS02004856           JUNCTION     0.09     0.17     9.59     0  01:35        0.17
  HS02004852           JUNCTION     0.02     0.10     9.61     0  01:35        0.10
  HS02004848           JUNCTION     0.02     0.08     9.68     0  01:36        0.08
  HS02004842           JUNCTION     0.34     0.41     9.68     0  01:35        0.41
  HS02004837           JUNCTION     0.04     0.10     9.68     0  01:35        0.10
  HS02004830           JUNCTION     0.05     0.15     9.62     0  01:35        0.15
  HS02004824           JUNCTION     0.04     0.20     9.61     0  01:35        0.20
  HS02004817           JUNCTION     0.47     0.77     9.61     0  01:34        0.77
  HS02004807           JUNCTION     0.15     0.44     9.61     0  01:35        0.44
  HS02004802           JUNCTION     0.19     0.47     9.60     0  01:34        0.47
  HS02004799           JUNCTION     0.16     0.55     9.76     0  01:33        0.55
  HS02004792           JUNCTION     0.05     0.27     9.79     0  01:33        0.27
  HS02004788           JUNCTION     0.04     0.19    10.09     0  01:34        0.19
  HS02004785           JUNCTION     0.07     0.29    10.19     0  01:33        0.29
  HS02004777           JUNCTION     0.17     0.44    10.24     0  01:33        0.44
  HS02004770           JUNCTION     0.14     0.42    10.25     0  01:33        0.42
  HS02004480           JUNCTION     0.11     0.46     9.70     0  01:33        0.46
  HS02004479           JUNCTION     0.15     0.49     9.70     0  01:34        0.49
  HS02004478           JUNCTION     0.09     0.35     9.58     0  01:34        0.35
  YS02001745           JUNCTION     0.82     1.29     8.81     0  01:29        1.05
  YS02001748           JUNCTION     1.22     1.86     8.94     0  01:28        1.47
  YS02001751           JUNCTION     1.40     1.77     8.65     0  01:29        1.64
  YS02001754           JUNCTION     1.65     1.94     8.54     0  01:29        1.89
  YS02001762           JUNCTION     1.85     2.08     8.48     0  03:07        2.07
  YS02001765           JUNCTION     1.80     2.02     8.47     0  03:07        2.02
  YS02001767           JUNCTION     1.77     1.98     8.47     0  03:07        1.97
  YS02001770           JUNCTION     1.76     1.95     8.44     0  02:06        1.95
  YS02001774           JUNCTION     1.82     2.05     8.47     0  01:26        2.00
  YS02001779           JUNCTION     1.56     1.68     8.37     0  01:26        1.68
  YS02001882           JUNCTION     0.74     1.70     8.41     0  01:32        1.64
  YS02001884           JUNCTION     0.83     1.78     8.40     0  01:32        1.74
  YS02001759           JUNCTION     1.89     2.12     8.48     0  03:05        2.11
  YS02001887           JUNCTION     0.91     1.84     8.38     0  01:32        1.82
  YS02001890           JUNCTION     0.93     1.81     8.32     0  01:32        1.81
  YS02001898           JUNCTION     0.70     1.70     8.44     0  01:32        1.56
  YS02001901           JUNCTION     0.82     1.81     8.42     0  01:32        1.67
  YS02001904           JUNCTION     0.79     1.73     8.36     0  01:32        1.63
  YS02001907           JUNCTION     1.12     1.96     8.25     0  01:32        1.96
  YS02001910           JUNCTION     0.92     1.99     8.50     0  01:33        1.88
  YS02001915           JUNCTION     0.72     1.93     8.64     0  01:33        1.77
  YS02001918           JUNCTION     0.46     1.81     8.88     0  01:33        1.59
  YS02001619           JUNCTION     1.35     1.61     8.54     0  01:27        1.53
  YS02001629           JUNCTION     1.70     1.85     8.40     0  01:27        1.85
  YS02001641           JUNCTION     1.79     1.96     8.39     0  01:29        1.93
  YS02001644           JUNCTION     1.79     1.92     8.35     0  01:29        1.92
  YS02001652           JUNCTION     1.66     2.04     8.64     0  01:29        1.89
  YS02001655           JUNCTION     1.43     1.97     8.82     0  01:29        1.69
  YS02001920           JUNCTION     0.57     2.10     9.11     0  01:33        1.67
  YS02001923           JUNCTION     0.39     2.01     9.27     0  01:33        1.44
  YS02001926           JUNCTION     0.42     1.90     9.35     0  01:33        1.27
  YS02001929           JUNCTION     0.27     1.78     9.47     0  01:33        1.05
  YS02001658           JUNCTION     1.16     1.76     8.90     0  01:29        1.42
  YS02001661           JUNCTION     0.92     1.84     9.24     0  01:29        1.16
  YS02001664           JUNCTION     0.43     0.68     8.61     0  01:30        0.68
  YS02001622           JUNCTION     1.37     1.62     8.52     0  01:27        1.54
  YS02001633           JUNCTION     1.79     1.98     8.43     0  01:29        1.94
  YS02001649           JUNCTION     1.85     2.05     8.44     0  01:29        2.05
  YS02001757           JUNCTION     1.98     2.21     8.47     0  02:35        2.21
  YS02001895           JUNCTION     0.69     1.66     8.41     0  01:32        1.56
  YS02001625           JUNCTION     1.65     1.78     8.38     0  01:27        1.78
  YS02163301           JUNCTION     1.73     1.90     8.42     0  01:29        1.89
  YS02163601           JUNCTION     1.84     2.03     8.43     0  01:29        1.98
  YS02164001           JUNCTION     1.77     1.96     8.42     0  01:29        1.91
  YS02001647           JUNCTION     1.63     1.79     8.40     0  01:39        1.79
  YSB1154              JUNCTION     0.29     0.65     9.70     0  01:34        0.65
  YSB6556              JUNCTION     0.18     0.53     9.70     0  01:33        0.53
  YSB1174              JUNCTION     0.24     0.59     9.70     0  01:33        0.59
  YSB1171              JUNCTION     0.44     0.80     9.70     0  01:34        0.80
  YS02006553           JUNCTION     1.12     1.98     8.27     0  01:32        1.97
  YS02006561           JUNCTION     0.44     1.57     8.23     0  01:32        1.09
  YS02006556           JUNCTION     1.09     1.97     8.28     0  01:32        1.94
  YS02006558           JUNCTION     1.13     2.03     8.30     0  01:32        1.98
  YS02001783           JUNCTION     0.69     1.78     7.92     0  01:32        1.48
  YS02001784           JUNCTION     0.70     1.73     7.80     0  01:32        1.42
  YS02001786           JUNCTION     0.62     1.63     7.66     0  01:32        1.26
  YS02001788           JUNCTION     0.54     1.72     7.70     0  01:32        1.13
  YS02001790           JUNCTION     0.67     1.74     7.39     0  01:32        1.29
  YS02001791           JUNCTION     0.64     1.95     7.42     0  06:44        1.28
  YS02001793           JUNCTION     0.89     1.97     6.80     0  01:32        1.80
  WSC                  OUTFALL      0.36     0.49     1.16     0  01:47        0.49
  JK-storage           STORAGE      3.17     5.80     6.60     0  01:32        5.80
  CC-storage           STORAGE      1.23     1.48     8.48     0  03:03        1.48
  XR-storage           STORAGE      7.20     7.72     5.72     0  01:47        7.72
  
  
  *******************
  Node Inflow Summary
  *******************
  
  -------------------------------------------------------------------------------------------------
                                  Maximum  Maximum                  Lateral       Total        Flow
                                  Lateral    Total  Time of Max      Inflow      Inflow     Balance
                                   Inflow   Inflow   Occurrence      Volume      Volume       Error
  Node                 Type           LPS      LPS  days hr:min    10^6 ltr    10^6 ltr     Percent
  -------------------------------------------------------------------------------------------------
  WS02001211           JUNCTION      7.35   391.49     0  03:14       0.207        10.4       0.394
  WS02001212           JUNCTION      0.00   395.86     0  03:14           0        10.4       0.236
  WS02001213           JUNCTION      0.00   399.53     0  03:13           0        10.4       0.290
  WS02003069           JUNCTION      0.32  1372.56     0  01:45     0.00902        22.1       0.175
  WS02003072           JUNCTION      0.00  1372.57     0  01:46           0          22       0.206
  WS02003073           JUNCTION      1.82  1374.32     0  01:46      0.0514          22       0.242
  WS02003060           JUNCTION     16.53  1372.29     0  01:44       0.466        22.1       0.164
  WS02003066           JUNCTION      0.00  1000.10     0  01:35           0        11.3       0.046
  WS02003059           JUNCTION      0.00   403.93     0  03:13           0        10.3       0.402
  WS02003067           JUNCTION      0.00   996.36     0  01:35           0        11.3       0.092
  WS02004401           JUNCTION      0.00  1015.93     0  01:34           0        11.6       0.196
  WS02004402           JUNCTION      0.00  1016.33     0  01:34           0        11.6       0.185
  WS02004403           JUNCTION      0.00  1017.24     0  01:34           0        11.6       0.166
  WS02004404           JUNCTION      0.16  1017.66     0  01:34     0.00457        11.5       0.126
  WS02004406           JUNCTION      0.00  1018.65     0  01:34           0        11.5       0.304
  WS02004409           JUNCTION      0.00  1016.30     0  01:34           0        11.5       0.169
  WS02004410           JUNCTION      0.00  1008.67     0  01:34           0        11.4       0.188
  WS02004411           JUNCTION      0.00   993.54     0  01:36           0        11.4       0.191
  WS02004412           JUNCTION      0.00   993.92     0  01:36           0        11.4       0.203
  WS02004413           JUNCTION      0.00   994.80     0  01:35           0        11.4       0.295
  WS02004405           JUNCTION      0.04  1018.70     0  01:34     0.00107        11.5       0.186
  WS02006109           JUNCTION      1.23   978.10     0  01:34      0.0347        11.6       0.118
  WS02006110           JUNCTION      0.00   978.00     0  01:34           0        11.5       0.169
  WS02006111           JUNCTION      0.00   977.70     0  01:34           0        11.5       0.038
  WS02006112           JUNCTION     39.49  1016.50     0  01:34       0.169        11.7       0.275
  WS02006113           JUNCTION      0.00   977.90     0  01:34           0        11.5       0.092
  WS02006115           JUNCTION      0.00  1016.07     0  01:34           0        11.6       0.193
  WS02006116           JUNCTION      0.00  1016.08     0  01:34           0        11.6       0.167
  WS02006230           JUNCTION     10.28   535.84     0  07:05        0.29        7.13       0.180
  WS02006231           JUNCTION      0.00   525.50     0  07:05           0        6.84       0.174
  WS02006232           JUNCTION      0.00   525.16     0  07:05           0        6.83       0.245
  WS02006234           JUNCTION      0.00   524.32     0  07:05           0        6.81       0.113
  WS02006235           JUNCTION      0.00   524.42     0  07:06           0        6.95       0.139
  WS02006238           JUNCTION      0.00   330.96     0  05:13           0        3.12      -0.061
  WS02006240           JUNCTION      0.00   344.87     0  05:12           0        3.08       0.310
  WS02006242           JUNCTION      0.00   353.57     0  05:12           0        3.07       0.432
  WS02006243           JUNCTION      0.00   369.87     0  07:02           0        3.05      -0.055
  WS02006245           JUNCTION      0.00   378.25     0  07:02           0        3.05       0.325
  WS02006247           JUNCTION      0.00   388.61     0  07:03           0        3.05       0.149
  WS02006248           JUNCTION      0.00   389.92     0  07:03           0        3.09      -0.049
  WS02006249           JUNCTION      0.00   489.81     0  02:40           0        3.58       0.141
  WS02006239           JUNCTION      0.00   334.95     0  05:13           0         3.1       0.054
  WS02006251           JUNCTION      0.08   486.96     0  02:40     0.00217        3.62      -0.043
  WS02006252           JUNCTION      0.00   400.00     0  07:00           0        2.64       0.002
  WS02006253           JUNCTION      5.06   289.19     0  01:32      0.0186       0.964      -0.109
  WS02006256           JUNCTION      0.00   983.00     0  01:40           0        14.3       0.002
  WS02004138           JUNCTION      0.00   380.00     0  00:00           0        10.3       0.062
  WS02004139           JUNCTION      0.32   395.85     0  00:00     0.00905        10.3       0.449
  WS02004407           JUNCTION      0.00  1019.45     0  01:34           0        11.5       0.073
  WS02006228           JUNCTION      0.00   976.73     0  01:34           0        11.5       0.115
  WS02006229           JUNCTION      0.00  1057.17     0  01:32           0        11.6       0.131
  WS02006280           JUNCTION      0.00   937.79     0  01:34           0        4.56       0.011
  WS02006284           JUNCTION      0.10   934.65     0  01:35      0.0027        4.56       0.018
  WS02006287           JUNCTION      0.00   934.66     0  01:35           0        4.56       0.018
  WSF200               JUNCTION      0.00  1000.98     0  01:36           0        11.3       0.044
  HS02004901           JUNCTION     48.29    48.29     0  01:31       0.205       0.205       0.866
  HS02004881           JUNCTION     19.22   196.54     0  01:33      0.0766       0.897       0.062
  HS02004876           JUNCTION     33.98   176.89     0  01:34       0.149       0.821       0.069
  HS02004870           JUNCTION     35.26   143.34     0  01:34       0.145       0.672       0.016
  HS02004862           JUNCTION     32.69   109.55     0  01:35       0.175       0.527       0.033
  HS02004856           JUNCTION     26.33    76.92     0  01:35       0.109       0.354       0.408
  HS02004852           JUNCTION      0.00    51.63     0  01:36           0       0.245       0.025
  HS02004848           JUNCTION     70.76    70.76     0  01:38         0.4         0.4       0.012
  HS02004842           JUNCTION      0.00    21.86     0  01:49           0       0.168       8.371
  HS02004837           JUNCTION     65.09    82.02     0  01:35       0.431       0.586       0.138
  HS02004830           JUNCTION      0.15    82.12     0  01:35     0.00423       0.576       0.215
  HS02004824           JUNCTION     81.60   164.05     0  01:38       0.463        1.04       0.052
  HS02004817           JUNCTION      0.60   166.61     0  01:39      0.0169        1.05       1.605
  HS02004807           JUNCTION     65.28   225.46     0  01:36       0.265         1.3       0.342
  HS02004802           JUNCTION      0.00   226.44     0  01:37           0         1.3       0.298
  HS02004799           JUNCTION     51.81   605.47     0  01:33       0.216        2.82       0.117
  HS02004792           JUNCTION    235.75   554.35     0  01:33        1.13        2.61       0.015
  HS02004788           JUNCTION     75.68   319.93     0  01:33       0.386        1.48       0.026
  HS02004785           JUNCTION      0.15   244.47     0  01:33     0.00423         1.1       0.047
  HS02004777           JUNCTION      0.03   244.67     0  01:32    0.000846         1.1       0.479
  HS02004770           JUNCTION    197.86   245.55     0  01:32       0.896         1.1       0.278
  HS02004480           JUNCTION      0.00   713.03     0  01:33           0        3.27       0.025
  HS02004479           JUNCTION      0.00   107.71     0  01:33           0       0.464       0.160
  HS02004478           JUNCTION      0.00   934.58     0  01:35           0        4.56       0.008
  YS02001745           JUNCTION    667.30   667.30     0  03:01        5.93        5.93       0.198
  YS02001748           JUNCTION      0.04   667.49     0  03:01     0.00127        5.92       0.381
  YS02001751           JUNCTION      0.01   667.77     0  03:01     0.00031         5.9       0.410
  YS02001754           JUNCTION      0.26   668.34     0  03:01     0.00733        5.88       0.415
  YS02001762           JUNCTION      0.00   368.48     0  01:32           0        3.35       0.632
  YS02001765           JUNCTION      0.00   368.54     0  01:35           0        3.35       0.731
  YS02001767           JUNCTION      0.54   372.15     0  01:26      0.0151        3.38       1.065
  YS02001770           JUNCTION    751.30  1111.87     0  03:01        6.45        8.71       0.360
  YS02001774           JUNCTION      0.00   852.11     0  02:16           0        7.15       0.347
  YS02001779           JUNCTION      0.01   851.75     0  02:18    0.000141        7.13       0.216
  YS02001882           JUNCTION      0.00    36.84     0  01:29           0      0.0396       6.053
  YS02001884           JUNCTION      0.00    64.45     0  01:29           0      0.0796       8.230
  YS02001759           JUNCTION    717.99   899.35     0  01:41        6.03         7.1       0.318
  YS02001887           JUNCTION    814.61   815.92     0  01:57        6.69        6.73       0.121
  YS02001890           JUNCTION      0.00   815.79     0  01:57           0        6.68       0.141
  YS02001898           JUNCTION      0.00   597.23     0  01:32           0        5.39       0.031
  YS02001901           JUNCTION      0.00   602.11     0  01:32           0        5.39       0.143
  YS02001904           JUNCTION      0.00   604.18     0  01:32           0        5.39       0.109
  YS02001907           JUNCTION      0.00  1427.91     0  03:01           0          14       0.162
  YS02001910           JUNCTION      0.00   911.23     0  03:01           0         8.6       0.132
  YS02001915           JUNCTION    557.90   911.08     0  03:01        4.87        8.65       0.078
  YS02001918           JUNCTION      0.00   436.71     0  01:32           0        3.81       0.041
  YS02001619           JUNCTION    574.80   574.80     0  03:01        5.02        5.02       0.237
  YS02001629           JUNCTION      0.00   283.09     0  01:26           0        2.09       1.365
  YS02001641           JUNCTION      0.00   456.53     0  01:28           0        6.14       0.343
  YS02001644           JUNCTION    644.82  1924.46     0  03:01        5.75        20.1       0.131
  YS02001652           JUNCTION      0.00   639.56     0  03:01           0        5.21       0.434
  YS02001655           JUNCTION      0.15   639.36     0  03:01     0.00434        5.23       0.486
  YS02001920           JUNCTION      2.87   404.30     0  01:33      0.0809        3.79       0.080
  YS02001923           JUNCTION      0.04   403.12     0  01:33     0.00106        3.69       0.050
  YS02001926           JUNCTION      0.05   463.64     0  01:33     0.00147        3.66       0.076
  YS02001929           JUNCTION    352.81   352.81     0  03:01        3.64        3.65       0.007
  YS02001658           JUNCTION      0.00   638.96     0  03:01           0        5.25       0.460
  YS02001661           JUNCTION      0.00   801.19     0  01:41           0        5.48       0.146
  YS02001664           JUNCTION    638.31   638.31     0  03:01        5.26        5.48       0.107
  YS02001622           JUNCTION      0.00   574.87     0  03:01           0        5.01       0.634
  YS02001633           JUNCTION    658.84   658.84     0  03:01        5.91        7.08       0.450
  YS02001649           JUNCTION      0.00  1447.30     0  03:01           0        11.7       0.316
  YS02001757           JUNCTION      0.00  2182.79     0  01:41           0        12.8       0.719
  YS02001895           JUNCTION      0.00   593.47     0  01:32           0        5.39       0.116
  YS02001625           JUNCTION      0.00   801.53     0  03:01           0        5.86       0.681
  YS02163301           JUNCTION      0.00   277.02     0  01:26           0        2.09       1.158
  YS02163601           JUNCTION      0.11   459.89     0  01:28      0.0031        6.14       0.488
  YS02164001           JUNCTION      0.00   458.40     0  01:28           0        6.13       0.327
  YS02001647           JUNCTION      0.00   846.70     0  03:17           0        9.16       0.309
  YSB1154              JUNCTION     59.56    59.56     0  01:33        0.26        0.26       0.555
  YSB6556              JUNCTION      0.00    59.44     0  01:33           0       0.261       0.488
  YSB1174              JUNCTION     51.10    51.10     0  01:30       0.195       0.195       0.657
  YSB1171              JUNCTION      0.00   108.25     0  01:32           0       0.462       1.394
  YS02006553           JUNCTION      0.00   732.73     0  04:03           0        7.59       0.195
  YS02006561           JUNCTION      0.00  1062.77     0  01:32           0        13.8       0.006
  YS02006556           JUNCTION      0.00   733.00     0  04:03           0         7.6       0.131
  YS02006558           JUNCTION    751.16  1062.25     0  01:32        6.28        13.8       0.034
  YS02001783           JUNCTION      0.00  1024.12     0  01:31           0        13.8       0.018
  YS02001784           JUNCTION      1.06  1025.26     0  01:31      0.0299        13.8       0.028
  YS02001786           JUNCTION      0.06  1025.23     0  01:31     0.00159        13.8       0.027
  YS02001788           JUNCTION      0.07  1004.80     0  01:31       0.002        13.8       0.018
  YS02001790           JUNCTION      0.15   984.10     0  02:00     0.00437        13.8       0.013
  YS02001791           JUNCTION      0.00   984.22     0  01:51           0        13.8       0.006
  YS02001793           JUNCTION      0.00   984.36     0  01:51           0        13.8      -0.017
  WSC                  OUTFALL       0.00  1374.27     0  01:47           0          22       0.000
  JK-storage           STORAGE       0.00  1024.24     0  01:30           0          14      -7.148
  CC-storage           STORAGE       0.00  2182.40     0  01:41           0        6.88       0.959
  XR-storage           STORAGE    1680.85  1680.85     0  03:01        21.3        21.9       0.000
  
  
  **********************
  Node Surcharge Summary
  **********************
  
  Surcharging occurs when water rises above the top of the highest conduit.
  ---------------------------------------------------------------------
                                               Max. Height   Min. Depth
                                   Hours       Above Crown    Below Rim
  Node                 Type      Surcharged         Meters       Meters
  ---------------------------------------------------------------------
  WS02004401           JUNCTION        1.77          0.463        1.197
  WS02004402           JUNCTION        1.87          0.414        1.326
  WS02004403           JUNCTION        1.90          0.367        1.663
  WS02004404           JUNCTION        2.00          0.391        2.389
  WS02004406           JUNCTION        1.97          0.249        2.201
  WS02004409           JUNCTION        0.13          0.042        2.318
  WS02004410           JUNCTION        0.01          0.008        2.532
  WS02004413           JUNCTION        0.85          0.050        2.150
  WS02004405           JUNCTION        1.99          0.360        2.440
  WS02006109           JUNCTION        3.36          1.092        0.728
  WS02006110           JUNCTION        2.26          0.876        0.974
  WS02006111           JUNCTION        0.64          0.467        1.403
  WS02006112           JUNCTION        2.35          0.899        0.781
  WS02006113           JUNCTION        0.71          0.626        1.304
  WS02006115           JUNCTION        1.65          0.520        1.730
  WS02006116           JUNCTION        1.66          0.471        1.819
  WS02006230           JUNCTION        2.14          1.057        0.513
  WS02006231           JUNCTION        2.32          1.032        0.498
  WS02006232           JUNCTION        3.46          1.112        0.368
  WS02006234           JUNCTION        2.83          0.963        0.277
  WS02006235           JUNCTION        3.03          0.963        0.327
  WS02006238           JUNCTION        3.10          0.970        0.460
  WS02006240           JUNCTION        2.59          0.794        0.596
  WS02006242           JUNCTION        2.69          0.775        0.045
  WS02006243           JUNCTION        2.34          0.615        0.155
  WS02006245           JUNCTION        2.28          0.530        0.320
  WS02006247           JUNCTION        2.28          0.504        0.256
  WS02006248           JUNCTION        2.12          0.380        0.000
  WS02006249           JUNCTION        2.15          0.390        0.000
  WS02006239           JUNCTION        2.80          0.866        0.424
  WS02006251           JUNCTION        1.19          0.926        0.254
  WS02006252           JUNCTION        2.27          1.100        0.000
  WS02006253           JUNCTION        1.45          0.900        1.580
  WS02006256           JUNCTION        7.06          2.050        0.000
  WS02006228           JUNCTION        3.30          1.280        0.920
  WS02006229           JUNCTION        0.01          0.026        1.044
  HS02004817           JUNCTION        0.46          0.067        1.673
  YS02001745           JUNCTION        1.07          0.293        1.057
  YS02001748           JUNCTION        6.35          0.784        0.406
  YS02001751           JUNCTION        6.36          0.770        0.430
  YS02001754           JUNCTION        6.38          0.886        0.264
  YS02001762           JUNCTION        6.40          1.080        0.070
  YS02001765           JUNCTION        6.40          1.024        0.076
  YS02001767           JUNCTION        6.39          0.980        0.050
  YS02001770           JUNCTION        6.39          0.920        0.000
  YS02001774           JUNCTION        6.40          1.046        0.004
  YS02001779           JUNCTION        6.37          0.680        0.000
  YS02001882           JUNCTION        2.56          0.696        0.134
  YS02001884           JUNCTION        2.57          0.725        0.145
  YS02001759           JUNCTION        6.41          1.121        0.089
  YS02001887           JUNCTION        2.63          0.792        0.158
  YS02001890           JUNCTION        2.65          0.760        0.000
  YS02001898           JUNCTION        2.53          0.674        0.066
  YS02001901           JUNCTION        2.61          0.807        0.063
  YS02001904           JUNCTION        2.59          0.729        0.121
  YS02001907           JUNCTION        3.14          0.950        0.000
  YS02001910           JUNCTION        2.69          0.990        0.110
  YS02001915           JUNCTION        2.55          0.925        0.075
  YS02001918           JUNCTION        2.42          0.810        0.000
  YS02001619           JUNCTION        6.37          0.610        0.000
  YS02001629           JUNCTION        6.37          0.470        0.000
  YS02001641           JUNCTION        6.40          0.958        0.142
  YS02001644           JUNCTION        6.40          0.920        0.000
  YS02001652           JUNCTION        6.38          1.014        0.116
  YS02001655           JUNCTION        6.37          0.971        0.229
  YS02001920           JUNCTION        2.44          1.102        0.038
  YS02001923           JUNCTION        0.01          0.800        0.020
  YS02001926           JUNCTION        0.01          0.900        0.000
  YS02001929           JUNCTION        0.01          0.780        0.000
  YS02001658           JUNCTION        6.35          0.757        0.543
  YS02001661           JUNCTION        1.42          0.768        0.622
  YS02001622           JUNCTION        6.37          0.620        0.000
  YS02001633           JUNCTION        6.40          0.960        0.100
  YS02001649           JUNCTION        6.40          1.050        0.000
  YS02001757           JUNCTION        6.42          1.210        0.000
  YS02001895           JUNCTION        2.54          0.662        0.088
  YS02001625           JUNCTION        6.38          0.780        0.000
  YS02163301           JUNCTION        6.39          0.902        0.128
  YS02163601           JUNCTION        6.40          1.034        0.046
  YS02164001           JUNCTION        6.40          0.965        0.135
  YS02001647           JUNCTION        6.38          0.792        0.108
  YS02006553           JUNCTION        3.20          0.982        0.208
  YS02006561           JUNCTION        2.44          0.775        0.375
  YS02006556           JUNCTION        2.85          0.927        0.423
  YS02006558           JUNCTION        2.82          0.932        0.468
  YS02001783           JUNCTION        2.65          0.983        0.617
  YS02001784           JUNCTION        2.62          0.934        0.556
  YS02001786           JUNCTION        2.54          0.828        0.602
  YS02001788           JUNCTION        2.49          0.920        0.560
  YS02001790           JUNCTION        3.29          0.942        0.215
  YS02001791           JUNCTION        3.38          1.149        0.771
  YS02001793           JUNCTION        3.62          0.971        1.629
  
  
  *********************
  Node Flooding Summary
  *********************
  
  Flooding refers to all water that overflows a node, whether it ponds or not.
  --------------------------------------------------------------------------
                                                             Total   Maximum
                                 Maximum   Time of Max       Flood    Ponded
                        Hours       Rate    Occurrence      Volume     Depth
  Node                 Flooded       LPS   days hr:min    10^6 ltr    Meters
  --------------------------------------------------------------------------
  WS02006248              0.44    150.58      0  01:39       0.139     0.000
  WS02006249              1.39    365.96      0  01:32       0.589     0.000
  WS02006252              0.01     24.12      0  01:32       0.000     0.000
  WS02006256              5.06    835.03      0  01:40      10.328     0.000
  YS02001770              1.16    260.68      0  03:01       0.421     0.000
  YS02001779              4.50    851.47      0  02:18       7.107     0.000
  YS02001890              1.74    299.67      0  01:56       1.275     0.000
  YS02001907              2.27   1197.57      0  03:01       6.359     0.000
  YS02001918              0.01     88.28      0  01:33       0.000     0.000
  YS02001619              0.01     95.60      0  01:27       0.000     0.000
  YS02001629              0.01    229.80      0  01:27       0.002     0.000
  YS02001644              5.81   1924.42      0  03:01      19.171     0.000
  YS02001926              0.01     13.80      0  01:33       0.000     0.000
  YS02001929              0.01    264.47      0  01:33       0.001     0.000
  YS02001622              0.01    104.30      0  01:27       0.000     0.000
  YS02001649              1.26    600.58      0  03:01       1.636     0.000
  YS02001757              0.26    193.90      0  03:06       0.112     0.000
  YS02001625              2.99    801.48      0  03:01       4.634     0.000
  JK-storage              0.71    690.27      0  01:32       0.763     0.000
  XR-storage              6.04   1300.74      0  03:01      10.740     0.000
  
  
  **********************
  Storage Volume Summary
  **********************
  
  --------------------------------------------------------------------------------------------------
                         Average     Avg  Evap Exfil       Maximum     Max    Time of Max    Maximum
                          Volume    Pcnt  Pcnt  Pcnt        Volume    Pcnt     Occurrence    Outflow
  Storage Unit           1000 m3    Full  Loss  Loss       1000 m3    Full    days hr:min        LPS
  --------------------------------------------------------------------------------------------------
  JK-storage               0.159      55     0     0         0.291     100       0  01:32     983.00
  CC-storage               3.434      22     0     0         4.136      26       0  03:03     400.00
  XR-storage               0.864      93     0     0         0.926     100       0  01:47     380.00
  
  
  ***********************
  Outfall Loading Summary
  ***********************
  
  ---------------------------------------------------------------------------------------------------------------------------------
                         Flow       Avg       Max       Total         Total         Total         Total         Total         Total
                         Freq      Flow      Flow      Volume           COD            SS            TN            TP         NH4-N
  Outfall Node           Pcnt       LPS       LPS    10^6 ltr            kg            kg            kg            kg            kg
  ---------------------------------------------------------------------------------------------------------------------------------
  WSC                   99.98    805.67   1374.27      21.966      2744.870      5030.007       132.774        14.722        77.826
  ---------------------------------------------------------------------------------------------------------------------------------
  System                99.98    805.67   1374.27      21.966      2744.870      5030.007       132.774        14.722        77.826
  
  
  ********************
  Link Flow Summary
  ********************
  
  -----------------------------------------------------------------------------
                                 Maximum  Time of Max   Maximum    Max/    Max/
                                  |Flow|   Occurrence   |Veloc|    Full    Full
  Link                 Type          LPS  days hr:min     m/sec    Flow   Depth
  -----------------------------------------------------------------------------
  WS02003066WSF200     CONDUIT   1000.98     0  01:36      3.18    0.17    0.33
  WS02006287WS02006284 CONDUIT    934.56     0  01:35      2.63    0.43    0.46
  WS02006284WS02006280 CONDUIT    937.79     0  01:34      2.86    0.39    0.44
  WS02006280WS02006229 CONDUIT    969.00     0  01:34      4.53    0.21    0.75
  WS02006229WS02006228 CONDUIT    976.73     0  01:34      1.94    3.24    1.00
  WS02006256WS02006235 CONDUIT    288.92     0  00:00      4.23    3.06    1.00
  WS02006253WS02006251 CONDUIT    287.29     0  01:32      0.83    0.86    1.00
  WS02006252WS02006251 CONDUIT    402.74     0  07:05      3.20    1.48    1.00
  WS02006251WS02006249 CONDUIT    489.81     0  02:40      1.27    1.41    1.00
  WS02006249WS02006248 CONDUIT    389.92     0  07:03      1.19    2.14    1.00
  WS02006248WS02006247 CONDUIT    388.61     0  07:03      1.17    0.85    1.00
  WS02006247WS02006245 CONDUIT    378.25     0  07:02      1.14    3.00    1.00
  WS02006245WS02006243 CONDUIT    369.87     0  07:02      1.19    1.09    1.00
  WS02006243WS02006242 CONDUIT    353.57     0  05:12      1.07    0.76    1.00
  WS02006242WS02006240 CONDUIT    344.87     0  05:12      1.02    1.37    1.00
  WS02006240WS02006239 CONDUIT    334.95     0  05:13      1.07    1.05    1.00
  WS02006239WS02006238 CONDUIT    330.96     0  05:13      0.96    1.06    1.00
  WS02006238WS02006235 CONDUIT    329.83     0  05:14      1.45    0.74    1.00
  WS02006235WS02006234 CONDUIT    524.32     0  07:05      1.36    5.53    1.00
  WS02006234WS02006232 CONDUIT    525.16     0  07:05      1.39    1.06    1.00
  WS02006232WS02006231 CONDUIT    525.50     0  07:05      1.37    1.10    1.00
  WS02006231WS02006230 CONDUIT    525.56     0  07:05      1.49    7.97    1.00
  WS02006230WS02006229 CONDUIT    539.72     0  07:05      1.40   12.01    1.00
  WS02006228WS02006109 CONDUIT    976.87     0  01:34      1.94    4.27    1.00
  WS02006116WS02004401 CONDUIT   1015.93     0  01:34      1.29    1.40    1.00
  WS02006115WS02006116 CONDUIT   1016.08     0  01:34      1.29    1.30    1.00
  WS02006113WS02006111 CONDUIT    977.70     0  01:34      2.66    1.17    1.00
  WS02006112WS02006115 CONDUIT   1016.07     0  01:34      1.29    0.60    1.00
  WS02006111WS02006112 CONDUIT    977.88     0  01:34      1.95    0.46    1.00
  WS02006110WS02006113 CONDUIT    977.90     0  01:34      1.95    0.89    1.00
  WS02006109WS02006110 CONDUIT    978.00     0  01:34      1.95    1.88    1.00
  WS02004411WS02004412 CONDUIT    993.92     0  01:36      1.29    1.41    0.96
  WS02004401WS02004402 CONDUIT   1016.33     0  01:34      1.29    1.22    1.00
  WS02004413WS02003067 CONDUIT    996.36     0  01:35      1.63    0.43    0.73
  WS02004412WS02004413 CONDUIT    994.80     0  01:35      1.28    0.67    0.97
  WS02004410WS02004411 CONDUIT    993.54     0  01:36      1.27    1.36    0.99
  WS02004409WS02004410 CONDUIT   1008.67     0  01:34      1.29    1.30    1.00
  WS02004407WS02004409 CONDUIT   1016.30     0  01:34      1.85    0.36    0.71
  WS02004406WS02004407 CONDUIT   1019.45     0  01:34      1.72    0.46    0.71
  WS02004405WS02004406 CONDUIT   1018.65     0  01:34      1.30    2.01    1.00
  WS02004404WS02004405 CONDUIT   1018.66     0  01:34      1.30    9.98    1.00
  WS02004403WS02004404 CONDUIT   1017.50     0  01:34      1.30    0.74    1.00
  WS02004402WS02004403 CONDUIT   1017.24     0  01:34      1.30    1.46    1.00
  WS02004139WS02001211 CONDUIT    384.14     0  03:14      0.90    0.49    0.65
  WS02004138WS02004139 CONDUIT    395.52     0  00:00      3.64    0.08    0.47
  WS02003067WS02003066 CONDUIT   1000.10     0  01:35      1.72    0.32    0.51
  WS02001213WS02003059 CONDUIT    403.93     0  03:13      0.89    0.67    0.88
  WS02001212WS02001213 CONDUIT    399.53     0  03:13      1.32    0.62    0.57
  WS02001211WS02001212 CONDUIT    395.86     0  03:14      0.78    0.30    0.72
  WS02003072WS02003073 CONDUIT   1372.50     0  01:46      1.98    2.96    0.59
  WS02003069WS02003072 CONDUIT   1372.57     0  01:46      1.84    0.66    0.63
  WS02003060WS02003069 CONDUIT   1372.24     0  01:45      2.04    0.54    0.57
  WS02003059WS02003060 CONDUIT    409.23     0  03:14      0.95    0.27    0.78
  HS02004901HS02004770 CONDUIT     47.75     0  01:32      0.11    0.18    0.61
  HS02004876HS02004881 CONDUIT    177.76     0  01:33      1.41    1.89    0.20
  HS02004870HS02004876 CONDUIT    143.30     0  01:35      0.95    0.10    0.22
  HS02004842HS02004848 CONDUIT     21.86     0  01:49      0.09    0.01    0.35
  HS02004837HS02004842 CONDUIT     22.38     0  01:49      0.42    0.01    0.37
  HS02004830HS02004837 CONDUIT     81.97     0  01:35      0.70    0.08    0.18
  HS02004824HS02004830 CONDUIT     82.88     0  01:37      0.63    0.11    0.25
  HS02004817HS02004824 CONDUIT    166.01     0  01:39      0.37    0.07    0.64
  HS02004770HS02004777 CONDUIT    244.64     0  01:32      0.57    0.45    0.62
  HS02004799HS02004480 CONDUIT    605.42     0  01:33      1.21    0.76    0.71
  HS02004792HS02004799 CONDUIT    554.25     0  01:33      1.36    0.34    0.58
  HS02004788HS02004792 CONDUIT    319.85     0  01:34      1.40    0.21    0.33
  HS02004785HS02004788 CONDUIT    244.45     0  01:33      1.02    1.84    0.34
  HS02004777HS02004785 CONDUIT    244.32     0  01:33      0.67    0.30    0.52
  HS02004480HS02004478 CONDUIT    712.97     0  01:33      1.74    3.00    0.59
  HS02004479HS02004480 CONDUIT    107.65     0  01:33      0.45    0.10    0.68
  HS02004862HS02004870 CONDUIT    109.57     0  01:36      0.90    0.12    0.17
  HS02004848HS02004852 CONDUIT     51.63     0  01:36      0.58    0.06    0.13
  HS02004856HS02004862 CONDUIT     76.86     0  01:35      0.67    0.08    0.16
  HS02004852HS02004856 CONDUIT     51.73     0  01:36      0.39    0.06    0.19
  HS02004802HS02004478 CONDUIT    227.64     0  01:38      0.57    0.20    0.58
  HS02004478WS02006287 CONDUIT    934.66     0  01:35      2.37    0.26    0.44
  HS02004817HS02004807 CONDUIT    166.71     0  01:39      0.30    0.10    0.81
  HS02004807HS02004802 CONDUIT    226.44     0  01:37      0.51    0.43    0.64
  YS02001759YS02001757 CONDUIT    899.39     0  01:41      1.15    0.64    1.00
  YS02001762YS02001759 CONDUIT    370.53     0  01:26      0.47    0.43    1.00
  YS02001765YS02001762 CONDUIT    368.48     0  01:32      0.47    0.35    1.00
  YS02001770YS02001767 CONDUIT    371.61     0  01:26      0.50    1.47    1.00
  YS02001774YS02001770 CONDUIT    852.11     0  02:16      1.08    0.54    1.00
  YS02001779YS02001774 CONDUIT    851.75     0  02:18      1.08    0.43    1.00
  YS02001649YS02001757 CONDUIT    889.67     0  01:39      1.13    0.54    1.00
  YS02001767YS02001765 CONDUIT    368.54     0  01:35      0.48    0.46    1.00
  YS02006561YS02001783 CONDUIT   1024.12     0  01:31      2.27    0.53    1.00
  YS02001783YS02001784 CONDUIT   1024.20     0  01:31      2.04    1.41    1.00
  YS02001784YS02001785 CONDUIT   1025.17     0  01:31      2.08    2.39    1.00
  YS02001788YS02001790 CONDUIT    983.94     0  02:00      2.48    0.73    1.00
  YS02001790YS02001791 CONDUIT    984.22     0  01:51      2.97    1.07    1.00
  YS02001791YS02001793 CONDUIT    984.36     0  01:51      5.82    0.42    1.00
  YS02001910YS02001907 CONDUIT    911.52     0  03:01      1.16    0.51    1.00
  YS02001786YS02001788 CONDUIT   1004.73     0  01:31      2.32    1.94    1.00
  YS02001915YS02001910 CONDUIT    911.23     0  03:01      1.16    0.45    1.00
  YS02001918YS02001915 CONDUIT    436.71     0  01:32      0.56    0.24    1.00
  YS02001923YS02001920 CONDUIT    403.08     0  01:33      0.91    0.18    1.00
  YS02001926YS02001923 CONDUIT    463.59     0  01:33      1.00    0.66    1.00
  YS02001929YS02001926 CONDUIT    352.30     0  03:01      1.07    0.17    1.00
  YS02001920YS02001918 CONDUIT    401.63     0  01:34      0.85    0.39    1.00
  YS02001629YS02163301 CONDUIT    283.09     0  01:26      0.36    0.35    1.00
  YS02001619YS02001622 CONDUIT    574.87     0  03:01      0.86    0.85    1.00
  YS02001622YS02001625 CONDUIT    575.18     0  03:01      0.73    0.31    1.00
  YS02001625YS02001629 CONDUIT    258.13     0  01:26      0.39    0.12    1.00
  YS02163301YS02001633 CONDUIT    277.02     0  01:26      0.35    0.26    1.00
  YS02163601YS02164001 CONDUIT    458.40     0  01:28      0.58    0.41    1.00
  YS02164001YS02001641 CONDUIT    456.53     0  01:28      0.58    0.62    1.00
  YS02001641YS02001644 CONDUIT    458.24     0  01:28      0.58    1.48    1.00
  YS02001647YS02001649 CONDUIT    846.70     0  03:17      1.08    0.45    1.00
  YS02006553YS02006556 CONDUIT    733.00     0  04:03      0.93    0.63    1.00
  YS02006556YS02006558 CONDUIT    732.40     0  04:03      0.93    0.58    1.00
  YSB6556YSB1171       CONDUIT     59.52     0  01:34      0.17    0.06    0.88
  YS02001907YS02006553 CONDUIT    732.73     0  04:03      0.81    0.86    1.00
  YS02006558YS02006561 CONDUIT   1062.77     0  01:32      3.77    2.35    1.00
  YS02001633YS02163601 CONDUIT    459.78     0  01:28      0.59    0.48    1.00
  YS02001644YS02001647 CONDUIT    846.70     0  03:17      1.08    0.50    1.00
  YS02001745YS02001748 CONDUIT    667.44     0  03:01      1.86    0.26    1.00
  YS02001748YS02001751 CONDUIT    667.75     0  03:01      1.39    0.34    1.00
  YS02001751YS02001754 CONDUIT    668.08     0  03:01      1.15    0.32    1.00
  YS02001754YS02001757 CONDUIT    668.61     0  03:01      0.85    0.27    1.00
  YS02001882YS02001884 CONDUIT     36.84     0  01:29      0.22    0.04    1.00
  YS02001884YS02001887 CONDUIT     64.45     0  01:29      0.16    0.09    1.00
  YS02001890YS02001895 CONDUIT    593.47     0  01:32      0.76    0.28    1.00
  YS02001895YS02001898 CONDUIT    597.23     0  01:32      0.76    1.04    1.00
  YS02001898YS02001901 CONDUIT    602.11     0  01:32      0.77    0.39    1.00
  YS02001901YS02001904 CONDUIT    604.18     0  01:32      0.77    0.94    1.00
  YS02001904YS02001907 CONDUIT    605.74     0  01:32      0.77    0.21    1.00
  YS02001887YS02001890 CONDUIT    815.79     0  01:57      1.04    1.40    1.00
  YS02001652YS02001649 CONDUIT    639.67     0  03:01      0.84    0.32    1.00
  YS02001655YS02001652 CONDUIT    639.56     0  03:01      1.25    0.31    1.00
  YS02001658YS02001655 CONDUIT    639.21     0  03:01      1.61    0.27    1.00
  YS02001661YS02001658 CONDUIT    638.96     0  03:01      1.99    0.25    1.00
  YS02001664YS02001661 CONDUIT    801.19     0  01:41      1.90    0.25    0.84
  YSB1154YSB6556       CONDUIT     59.44     0  01:33      0.17    0.11    0.84
  YSB1174YSB1171       CONDUIT     50.30     0  01:30      0.14    0.08    0.92
  YSB1171HS02004479    CONDUIT    107.71     0  01:33      0.54    0.07    0.78
  HS02004881HS02006253 CONDUIT    284.43     0  01:32      2.76    0.06    0.57
  YS02001793JiankangQianchi CONDUIT   1024.24     0  01:30     16.76    0.08    1.00
  YS02001757CaochengTiaoxuchi CONDUIT   2182.40     0  01:41      3.80    0.96    1.00
  WSF200WS02003060     CONDUIT   1003.85     0  01:36      2.25    0.22    0.45
  1                    CONDUIT   1374.27     0  01:47      3.62    0.48    0.49
  CC-Pump-1            PUMP       200.00     0  02:40              1.00
  CC-Pump-2            PUMP       200.00     0  07:00              1.00
  JK-Pump-1            PUMP       300.00     0  00:00              1.00
  JK-Pump-2            PUMP       683.00     0  01:40              1.00
  XR-Pump-1            PUMP        95.00     0  00:00              1.00
  XR-Pump-2            PUMP        95.00     0  00:00              1.00
  XR-Pump-3            PUMP        95.00     0  00:00              1.00
  XR-Pump-4            PUMP        95.00     0  00:00              1.00
  
  
  ***************************
  Flow Classification Summary
  ***************************
  
  -------------------------------------------------------------------------------------
                      Adjusted    ---------- Fraction of Time in Flow Class ---------- 
                       /Actual         Up    Down  Sub   Sup   Up    Down  Norm  Inlet 
  Conduit               Length    Dry  Dry   Dry   Crit  Crit  Crit  Crit  Ltd   Ctrl  
  -------------------------------------------------------------------------------------
  WS02003066WSF200        1.00   0.01  0.02  0.00  0.00  0.97  0.00  0.00  0.56  0.00
  WS02006287WS02006284    1.00   0.03  0.01  0.00  0.63  0.33  0.00  0.00  0.61  0.00
  WS02006284WS02006280    1.00   0.04  0.00  0.00  0.00  0.00  0.00  0.95  0.00  0.00
  WS02006280WS02006229    1.00   0.04  0.00  0.00  0.05  0.11  0.00  0.79  0.04  0.00
  WS02006229WS02006228    1.00   0.00  0.00  0.00  0.99  0.00  0.00  0.00  0.00  0.00
  WS02006256WS02006235    1.00   0.00  0.00  0.00  1.00  0.00  0.00  0.00  0.00  0.00
  WS02006253WS02006251    1.00   0.02  0.02  0.00  0.96  0.00  0.01  0.00  0.00  0.00
  WS02006252WS02006251    1.00   0.08  0.00  0.00  0.20  0.00  0.72  0.00  0.00  0.00
  WS02006251WS02006249    1.00   0.00  0.00  0.00  1.00  0.00  0.00  0.00  0.26  0.00
  WS02006249WS02006248    1.00   0.00  0.01  0.00  0.92  0.00  0.07  0.00  0.00  0.00
  WS02006248WS02006247    1.00   0.01  0.00  0.00  0.99  0.00  0.00  0.00  0.09  0.00
  WS02006247WS02006245    1.00   0.01  0.00  0.00  0.98  0.00  0.00  0.02  0.00  0.00
  WS02006245WS02006243    1.00   0.00  0.00  0.00  0.95  0.00  0.00  0.05  0.00  0.00
  WS02006243WS02006242    1.00   0.00  0.00  0.00  0.99  0.00  0.00  0.00  0.17  0.00
  WS02006242WS02006240    1.00   0.00  0.00  0.00  0.98  0.00  0.02  0.00  0.00  0.00
  WS02006240WS02006239    1.00   0.00  0.00  0.00  0.95  0.00  0.00  0.05  0.01  0.00
  WS02006239WS02006238    1.00   0.00  0.00  0.00  1.00  0.00  0.00  0.00  0.09  0.00
  WS02006238WS02006235    1.00   0.00  0.00  0.00  1.00  0.00  0.00  0.00  0.00  0.00
  WS02006235WS02006234    1.00   0.00  0.00  0.00  0.98  0.00  0.02  0.00  0.00  0.00
  WS02006234WS02006232    1.00   0.00  0.00  0.00  1.00  0.00  0.00  0.00  0.04  0.00
  WS02006232WS02006231    1.00   0.00  0.00  0.00  1.00  0.00  0.00  0.00  0.00  0.00
  WS02006231WS02006230    1.00   0.00  0.00  0.00  0.63  0.00  0.37  0.00  0.00  0.00
  WS02006230WS02006229    1.00   0.00  0.00  0.00  0.99  0.00  0.00  0.01  0.00  0.00
  WS02006228WS02006109    1.00   0.00  0.00  0.00  1.00  0.00  0.00  0.00  0.00  0.00
  WS02006116WS02004401    1.00   0.01  0.00  0.00  0.99  0.00  0.00  0.00  0.00  0.00
  WS02006115WS02006116    1.00   0.01  0.00  0.00  0.99  0.00  0.00  0.00  0.00  0.00
  WS02006113WS02006111    1.00   0.01  0.00  0.00  0.17  0.82  0.00  0.00  0.18  0.00
  WS02006112WS02006115    1.00   0.01  0.00  0.00  0.99  0.00  0.00  0.00  0.00  0.00
  WS02006111WS02006112    1.00   0.01  0.00  0.00  0.99  0.00  0.00  0.00  0.73  0.00
  WS02006110WS02006113    1.00   0.00  0.00  0.00  0.99  0.00  0.00  0.00  0.00  0.00
  WS02006109WS02006110    1.00   0.00  0.00  0.00  0.99  0.00  0.00  0.00  0.00  0.00
  WS02004411WS02004412    1.00   0.02  0.00  0.00  0.98  0.00  0.00  0.00  0.00  0.00
  WS02004401WS02004402    1.00   0.01  0.00  0.00  0.99  0.00  0.00  0.00  0.00  0.00
  WS02004413WS02003067    1.00   0.02  0.01  0.00  0.00  0.00  0.97  0.00  0.00  0.00
  WS02004412WS02004413    1.00   0.02  0.00  0.00  0.98  0.00  0.00  0.00  0.01  0.00
  WS02004410WS02004411    1.00   0.02  0.00  0.00  0.98  0.00  0.00  0.00  0.00  0.00
  WS02004409WS02004410    1.00   0.02  0.00  0.00  0.98  0.00  0.00  0.00  0.02  0.00
  WS02004407WS02004409    1.00   0.02  0.00  0.00  0.98  0.00  0.00  0.00  0.94  0.00
  WS02004406WS02004407    1.00   0.00  0.02  0.00  0.98  0.00  0.00  0.00  0.00  0.00
  WS02004405WS02004406    1.00   0.00  0.00  0.00  1.00  0.00  0.00  0.00  0.00  0.00
  WS02004404WS02004405    1.00   0.00  0.00  0.00  1.00  0.00  0.00  0.00  0.00  0.00
  WS02004403WS02004404    1.00   0.00  0.01  0.00  0.99  0.00  0.00  0.00  0.00  0.00
  WS02004402WS02004403    1.00   0.01  0.00  0.00  0.99  0.00  0.00  0.00  0.00  0.00
  WS02004139WS02001211    1.00   0.00  0.00  0.00  1.00  0.00  0.00  0.00  0.00  0.00
  WS02004138WS02004139    1.00   0.00  0.00  0.00  1.00  0.00  0.00  0.00  1.00  0.00
  WS02003067WS02003066    1.00   0.03  0.00  0.00  0.97  0.00  0.00  0.00  0.00  0.00
  WS02001213WS02003059    1.00   0.00  0.00  0.00  1.00  0.00  0.00  0.00  0.00  0.00
  WS02001212WS02001213    1.00   0.00  0.00  0.00  0.93  0.00  0.07  0.00  0.00  0.00
  WS02001211WS02001212    1.00   0.00  0.00  0.00  1.00  0.00  0.00  0.00  0.00  0.00
  WS02003072WS02003073    1.00   0.00  0.00  0.00  0.00  0.00  0.00  1.00  0.00  0.00
  WS02003069WS02003072    1.00   0.00  0.00  0.00  1.00  0.00  0.00  0.00  0.06  0.00
  WS02003060WS02003069    1.00   0.00  0.00  0.00  0.99  0.01  0.00  0.00  0.04  0.00
  WS02003059WS02003060    1.00   0.00  0.00  0.00  1.00  0.00  0.00  0.00  0.01  0.00
  HS02004901HS02004770    1.00   0.04  0.00  0.00  0.96  0.00  0.00  0.00  0.00  0.00
  HS02004876HS02004881    1.00   0.01  0.00  0.00  0.78  0.21  0.00  0.00  0.00  0.00
  HS02004870HS02004876    1.00   0.00  0.00  0.00  0.99  0.00  0.00  0.00  0.95  0.00
  HS02004842HS02004848    1.00   0.00  0.04  0.00  0.96  0.00  0.00  0.00  0.53  0.00
  HS02004837HS02004842    1.00   0.00  0.00  0.00  1.00  0.00  0.00  0.00  0.11  0.00
  HS02004830HS02004837    1.00   0.00  0.00  0.00  1.00  0.00  0.00  0.00  0.99  0.00
  HS02004824HS02004830    1.00   0.00  0.00  0.00  1.00  0.00  0.00  0.00  0.03  0.00
  HS02004817HS02004824    1.00   0.00  0.00  0.00  1.00  0.00  0.00  0.00  0.86  0.00
  HS02004770HS02004777    1.00   0.00  0.04  0.00  0.96  0.00  0.00  0.00  0.01  0.00
  HS02004799HS02004480    1.00   0.00  0.01  0.00  0.95  0.00  0.03  0.00  0.00  0.00
  HS02004792HS02004799    1.00   0.00  0.00  0.00  0.99  0.01  0.00  0.00  0.98  0.00
  HS02004788HS02004792    1.00   0.00  0.00  0.00  1.00  0.00  0.00  0.00  0.98  0.00
  HS02004785HS02004788    1.00   0.00  0.00  0.00  1.00  0.00  0.00  0.00  0.00  0.00
  HS02004777HS02004785    1.00   0.00  0.00  0.00  1.00  0.00  0.00  0.00  0.10  0.00
  HS02004480HS02004478    1.00   0.04  0.00  0.00  0.66  0.00  0.00  0.30  0.00  0.00
  HS02004479HS02004480    1.00   0.02  0.00  0.00  0.98  0.00  0.00  0.00  0.10  0.00
  HS02004862HS02004870    1.00   0.00  0.00  0.00  1.00  0.00  0.00  0.00  0.02  0.00
  HS02004848HS02004852    1.00   0.04  0.00  0.00  0.96  0.00  0.00  0.00  0.83  0.00
  HS02004856HS02004862    1.00   0.00  0.05  0.00  0.95  0.00  0.00  0.00  0.85  0.00
  HS02004852HS02004856    1.00   0.04  0.00  0.00  0.96  0.00  0.00  0.00  0.69  0.00
  HS02004802HS02004478    1.00   0.04  0.00  0.00  0.96  0.00  0.00  0.00  0.01  0.00
  HS02004478WS02006287    1.00   0.05  0.00  0.00  0.70  0.25  0.00  0.00  0.58  0.00
  HS02004817HS02004807    1.00   0.00  0.04  0.00  0.96  0.00  0.00  0.00  0.01  0.00
  HS02004807HS02004802    1.00   0.04  0.00  0.00  0.95  0.00  0.00  0.00  0.00  0.00
  YS02001759YS02001757    1.00   0.00  0.00  0.00  1.00  0.00  0.00  0.00  0.15  0.00
  YS02001762YS02001759    1.00   0.00  0.00  0.00  1.00  0.00  0.00  0.00  0.01  0.00
  YS02001765YS02001762    1.00   0.00  0.00  0.00  1.00  0.00  0.00  0.00  0.13  0.00
  YS02001770YS02001767    1.00   0.00  0.00  0.00  1.00  0.00  0.00  0.00  0.00  0.00
  YS02001774YS02001770    1.00   0.00  0.04  0.00  0.96  0.00  0.00  0.00  0.01  0.00
  YS02001779YS02001774    1.00   0.00  0.00  0.00  1.00  0.00  0.00  0.00  0.15  0.00
  YS02001649YS02001757    1.00   0.00  0.00  0.00  1.00  0.00  0.00  0.00  0.14  0.00
  YS02001767YS02001765    1.00   0.00  0.00  0.00  1.00  0.00  0.00  0.00  0.00  0.00
  YS02006561YS02001783    1.00   0.05  0.00  0.00  0.46  0.49  0.00  0.00  0.37  0.00
  YS02001783YS02001784    1.00   0.00  0.05  0.00  0.95  0.00  0.00  0.00  0.00  0.00
  YS02001784YS02001785    1.00   0.00  0.00  0.00  1.00  0.00  0.00  0.00  0.15  0.00
  YS02001788YS02001790    1.00   0.00  0.00  0.00  0.52  0.48  0.00  0.00  0.28  0.00
  YS02001790YS02001791    1.00   0.00  0.00  0.00  0.48  0.52  0.00  0.00  0.35  0.00
  YS02001791YS02001793    1.00   0.00  0.00  0.00  0.50  0.50  0.00  0.00  0.02  0.00
  YS02001910YS02001907    1.00   0.00  0.00  0.00  0.99  0.00  0.00  0.01  0.11  0.00
  YS02001786YS02001788    1.00   0.00  0.00  0.00  0.51  0.49  0.00  0.00  0.00  0.00
  YS02001915YS02001910    1.00   0.00  0.00  0.00  0.99  0.01  0.00  0.00  0.12  0.00
  YS02001918YS02001915    1.00   0.00  0.00  0.00  0.99  0.01  0.00  0.00  0.44  0.00
  YS02001923YS02001920    1.00   0.00  0.00  0.00  1.00  0.00  0.00  0.00  0.65  0.00
  YS02001926YS02001923    1.00   0.00  0.03  0.00  0.28  0.00  0.69  0.00  0.00  0.00
  YS02001929YS02001926    1.00   0.00  0.04  0.00  0.96  0.00  0.00  0.00  0.55  0.00
  YS02001920YS02001918    1.00   0.00  0.00  0.00  1.00  0.00  0.00  0.00  0.00  0.00
  YS02001629YS02163301    1.00   0.04  0.00  0.00  0.95  0.00  0.00  0.00  0.00  0.00
  YS02001619YS02001622    1.00   0.04  0.00  0.00  0.96  0.00  0.00  0.00  0.00  0.00
  YS02001622YS02001625    1.00   0.04  0.00  0.00  0.96  0.00  0.00  0.00  0.02  0.00
  YS02001625YS02001629    1.00   0.04  0.01  0.00  0.94  0.00  0.01  0.00  0.00  0.00
  YS02163301YS02001633    1.00   0.00  0.04  0.00  0.96  0.00  0.00  0.00  0.00  0.00
  YS02163601YS02164001    1.00   0.00  0.03  0.00  0.97  0.00  0.00  0.00  0.00  0.00
  YS02164001YS02001641    1.00   0.00  0.03  0.00  0.97  0.00  0.00  0.00  0.05  0.00
  YS02001641YS02001644    1.00   0.00  0.00  0.00  1.00  0.00  0.00  0.00  0.00  0.00
  YS02001647YS02001649    1.00   0.00  0.05  0.00  0.95  0.00  0.00  0.00  0.01  0.00
  YS02006553YS02006556    1.00   0.01  0.00  0.00  0.99  0.00  0.00  0.00  0.03  0.00
  YS02006556YS02006558    1.00   0.00  0.00  0.00  1.00  0.00  0.00  0.00  0.00  0.00
  YSB6556YSB1171          1.00   0.02  0.02  0.00  0.96  0.00  0.00  0.00  0.00  0.00
  YS02001907YS02006553    1.00   0.00  0.01  0.00  0.99  0.00  0.00  0.00  0.00  0.00
  YS02006558YS02006561    1.00   0.05  0.00  0.00  0.28  0.67  0.00  0.00  0.35  0.00
  YS02001633YS02163601    1.00   0.00  0.00  0.00  1.00  0.00  0.00  0.00  0.14  0.00
  YS02001644YS02001647    1.00   0.00  0.05  0.00  0.95  0.00  0.00  0.00  0.00  0.00
  YS02001745YS02001748    1.00   0.00  0.00  0.00  0.93  0.00  0.00  0.07  0.00  0.00
  YS02001748YS02001751    1.00   0.00  0.00  0.00  0.98  0.02  0.00  0.00  0.13  0.00
  YS02001751YS02001754    1.00   0.00  0.00  0.00  0.95  0.00  0.00  0.05  0.01  0.00
  YS02001754YS02001757    1.00   0.00  0.00  0.00  1.00  0.00  0.00  0.00  0.15  0.00
  YS02001882YS02001884    1.00   0.04  0.00  0.00  0.95  0.00  0.00  0.00  0.00  0.00
  YS02001884YS02001887    1.00   0.02  0.01  0.00  0.96  0.00  0.00  0.00  0.00  0.00
  YS02001890YS02001895    1.00   0.00  0.04  0.00  0.95  0.00  0.00  0.00  0.00  0.00
  YS02001895YS02001898    1.00   0.05  0.00  0.00  0.95  0.00  0.01  0.00  0.00  0.00
  YS02001898YS02001901    1.00   0.05  0.00  0.00  0.95  0.00  0.00  0.00  0.00  0.00
  YS02001901YS02001904    1.00   0.05  0.00  0.00  0.95  0.00  0.00  0.00  0.00  0.00
  YS02001904YS02001907    1.00   0.00  0.04  0.00  0.95  0.00  0.00  0.00  0.00  0.00
  YS02001887YS02001890    1.00   0.00  0.00  0.00  0.99  0.00  0.01  0.00  0.00  0.00
  YS02001652YS02001649    1.00   0.00  0.00  0.00  1.00  0.00  0.00  0.00  0.14  0.00
  YS02001655YS02001652    1.00   0.00  0.00  0.00  0.95  0.00  0.00  0.05  0.01  0.00
  YS02001658YS02001655    1.00   0.00  0.04  0.00  0.94  0.02  0.00  0.00  0.01  0.00
  YS02001661YS02001658    1.00   0.04  0.00  0.00  0.93  0.03  0.00  0.00  0.00  0.00
  YS02001664YS02001661    1.00   0.04  0.00  0.00  0.93  0.03  0.00  0.00  0.06  0.00
  YSB1154YSB6556          1.00   0.04  0.00  0.00  0.96  0.00  0.00  0.00  0.01  0.00
  YSB1174YSB1171          1.00   0.02  0.01  0.00  0.97  0.00  0.00  0.00  0.00  0.00
  YSB1171HS02004479       1.00   0.02  0.00  0.00  0.98  0.00  0.00  0.00  0.09  0.00
  HS02004881HS02006253    1.00   0.02  0.00  0.00  0.63  0.02  0.00  0.32  0.50  0.00
  YS02001793JiankangQianchi    1.00   0.00  0.00  0.00  0.65  0.35  0.00  0.00  0.28  0.00
  YS02001757CaochengTiaoxuchi    1.00   0.00  0.06  0.00  0.91  0.03  0.00  0.00  0.00  0.00
  WSF200WS02003060        1.00   0.00  0.01  0.00  0.98  0.01  0.00  0.00  0.47  0.00
  1                       1.00   0.00  0.00  0.00  0.00  1.00  0.00  0.00  0.49  0.00
  
  
  *************************
  Conduit Surcharge Summary
  *************************
  
  ----------------------------------------------------------------------------
                                                           Hours        Hours 
                         --------- Hours Full --------   Above Full   Capacity
  Conduit                Both Ends  Upstream  Dnstream   Normal Flow   Limited
  ----------------------------------------------------------------------------
  WS02006280WS02006229        0.01      0.01      0.01      0.01         0.01
  WS02006229WS02006228        3.30      3.45      3.30      4.82         3.29
  WS02006256WS02006235        6.23      6.23      7.06      5.21         0.01
  WS02006253WS02006251        2.04      2.04      2.08      0.01         0.03
  WS02006252WS02006251        1.46      1.46      2.27      1.02         0.01
  WS02006251WS02006249        2.05      2.05      2.15      0.65         0.48
[...]
  YS02001649YS02001757        6.40      6.40      6.42      0.01         0.01
  YS02001767YS02001765        6.39      6.39      6.40      0.01         0.01
  YS02006561YS02001783        2.44      2.44      2.65      0.01         0.01
  YS02001783YS02001784        2.62      2.65      2.62      2.89         2.62
  YS02001784YS02001785        2.54      2.62      2.54      3.63         2.54
  YS02001788YS02001790        2.49      2.49      3.29      0.01         0.01
  YS02001790YS02001791        3.29      3.29      3.38      2.58         2.56
  YS02001791YS02001793        3.38      3.38      3.69      0.01         0.01
  YS02001910YS02001907        2.69      2.69      3.14      0.01         0.01
  YS02001786YS02001788        2.49      2.54      2.49      3.29         2.49
  YS02001915YS02001910        2.55      2.55      2.69      0.01         0.01
  YS02001918YS02001915        2.42      2.42      2.55      0.01         0.01
  YS02001923YS02001920        2.25      2.25      2.44      0.01         0.01
  YS02001926YS02001923        0.01      0.01      0.01      0.01         0.01
  YS02001929YS02001926        0.01      0.01      0.01      0.01         0.01
  YS02001920YS02001918        2.42      2.42      2.44      0.01         0.01
  YS02001629YS02163301        6.38      6.38      6.39      0.01         0.01
  YS02001619YS02001622        6.37      6.37      6.37      0.01         0.05
  YS02001622YS02001625        6.37      6.37      6.38      0.01         0.01
  YS02001625YS02001629        6.37      6.37      6.38      0.01         0.01
  YS02163301YS02001633        6.39      6.39      6.40      0.01         0.01
  YS02163601YS02164001        6.40      6.40      6.40      0.01         0.01
  YS02164001YS02001641        6.40      6.40      6.40      0.01         0.01
  YS02001641YS02001644        6.40      6.40      6.40      3.17         3.21
  YS02001647YS02001649        6.38      6.38      6.40      0.01         0.01
  YS02006553YS02006556        2.85      2.85      3.20      0.01         0.01
  YS02006556YS02006558        2.93      2.93      3.25      0.01         0.01
  YSB6556YSB1171              0.01      0.01      0.58      0.01         0.01
  YS02001907YS02006553        3.65      3.65      3.82      0.01         0.01
  YS02006558YS02006561        2.51      2.82      2.51      3.50         2.51
  YS02001633YS02163601        6.40      6.40      6.40      0.01         0.01
  YS02001644YS02001647        6.38      6.38      6.40      0.01         0.01
  YS02001745YS02001748        1.06      1.06      6.35      0.01         0.01
  YS02001748YS02001751        6.35      6.35      6.36      0.01         0.01
  YS02001751YS02001754        6.36      6.36      6.38      0.01         0.01
  YS02001754YS02001757        6.38      6.38      6.42      0.01         0.01
  YS02001882YS02001884        2.56      2.56      2.57      0.01         0.01
  YS02001884YS02001887        2.61      2.61      2.63      0.01         0.01
  YS02001890YS02001895        2.54      2.54      2.70      0.01         0.01
  YS02001895YS02001898        2.53      2.53      2.54      0.01         0.01
  YS02001898YS02001901        2.55      2.55      2.61      0.01         0.01
  YS02001901YS02001904        2.59      2.59      2.61      0.01         0.01
  YS02001904YS02001907        2.59      2.59      3.23      0.01         0.01
  YS02001887YS02001890        2.65      2.65      2.67      1.66         0.01
  YS02001652YS02001649        6.38      6.38      6.40      0.01         0.01
  YS02001655YS02001652        6.37      6.37      6.38      0.01         0.01
  YS02001658YS02001655        6.35      6.35      6.37      0.01         0.01
  YS02001661YS02001658        1.41      1.41      6.35      0.01         0.01
  YS02001664YS02001661        0.01      0.01      2.63      0.01         0.01
  YSB1174YSB1171              0.01      0.01      0.32      0.01         0.01
  HS02004881HS02006253        0.01      0.01      1.45      0.01         0.01
  YS02001793JiankangQianchi        3.61      3.61      4.79      0.01         0.01
  YS02001757CaochengTiaoxuchi        5.98      5.98      6.42      0.01         0.01
  
  
  ***************
  Pumping Summary
  ***************
  
  ---------------------------------------------------------------------------------------------------------
                                                  Min       Avg       Max     Total     Power    % Time Off
                        Percent   Number of      Flow      Flow      Flow    Volume     Usage    Pump Curve
  Pump                 Utilized   Start-Ups       LPS       LPS       LPS  10^6 ltr     Kw-hr    Low   High
  ---------------------------------------------------------------------------------------------------------
  CC-Pump-1               48.93           7      0.00    124.00    200.00     1.680      1.47    0.0    0.0
  CC-Pump-2               31.91           5      0.00    101.70    200.00     0.960      1.00    0.0    0.0
  JK-Pump-1               70.21           4      0.00    242.55    300.00     4.908     62.20    0.0    0.0
  JK-Pump-2               63.82           3      0.00    469.16    683.00     9.387    102.30    0.0   98.0
  XR-Pump-1              100.00           1      0.00     95.00     95.00     2.679     20.91    0.0    0.0
  XR-Pump-2               97.87           2      0.00     94.46     95.00     2.565     18.46    0.0    0.0
  XR-Pump-3               97.87           2      0.00     92.49     95.00     2.508     17.41    0.0    0.0
  XR-Pump-4               97.87           2      0.00     92.49     95.00     2.508     17.41    0.0    0.0
  
  
  ***************************
  Link Pollutant Load Summary
  ***************************
  
  ------------------------------------------------------------------------------------------
                                 COD            SS            TN            TP         NH4-N
  Link                            kg            kg            kg            kg            kg
  ------------------------------------------------------------------------------------------
  WS02003066WSF200          1311.846      2567.119        30.941         2.559        15.812
  WS02006287WS02006284       662.632      1308.452        17.242         1.527         9.012
  WS02006284WS02006280       663.080      1309.147        17.289         1.533         9.041
  WS02006280WS02006229       663.169      1309.421        17.288         1.533         9.040
  WS02006229WS02006228      1292.174      2529.759        30.022         2.450        15.274
  WS02006256WS02006235       302.791       578.931         6.380         0.473         3.163
  WS02006253WS02006251       130.569       264.449         2.793         0.205         1.370
  WS02006252WS02006251       314.559       620.106         5.905         0.408         2.840
  WS02006251WS02006249       436.462       867.959         8.528         0.601         4.129
  WS02006249WS02006248       355.806       702.932         6.989         0.494         3.390
  WS02006248WS02006247       361.407       713.646         7.118         0.505         3.457
  WS02006247WS02006245       360.116       710.360         7.102         0.504         3.450
  WS02006245WS02006243       358.758       707.017         7.081         0.503         3.441
  WS02006243WS02006242       358.806       706.199         7.092         0.505         3.448
  WS02006242WS02006240       356.824       701.409         7.059         0.503         3.433
  WS02006240WS02006239       356.214       699.654         7.047         0.502         3.428
  WS02006239WS02006238       357.212       701.412         7.061         0.503         3.435
  WS02006238WS02006235       358.244       703.420         7.068         0.503         3.436
  WS02006235WS02006234       634.157      1230.642        12.877         0.931         6.310
  WS02006234WS02006232       637.615      1237.502        12.964         0.939         6.356
  WS02006232WS02006231       641.066      1244.447        13.050         0.947         6.401
  WS02006231WS02006230       644.624      1251.724        13.137         0.955         6.446
  WS02006230WS02006229       650.039      1262.797        13.255         0.965         6.506
  WS02006228WS02006109      1292.233      2529.985        30.014         2.449        15.268
  WS02006116WS02004401      1325.316      2592.788        31.231         2.580        15.957
  WS02006115WS02006116      1326.488      2594.992        31.264         2.583        15.974
  WS02006113WS02006111      1300.460      2543.569        30.796         2.547        15.757
  WS02006112WS02006115      1327.708      2597.314        31.304         2.587        15.997
  WS02006111WS02006112      1299.783      2542.099        30.776         2.545        15.746
  WS02006110WS02006113      1300.656      2543.758        30.811         2.549        15.766
  WS02006109WS02006110      1301.163      2544.507        30.842         2.552        15.785
  WS02004411WS02004412      1315.767      2574.543        31.056         2.569        15.875
  WS02004401WS02004402      1324.081      2590.464        31.193         2.577        15.936
  WS02004413WS02003067      1312.783      2568.912        30.963         2.560        15.823
  WS02004412WS02004413      1314.290      2571.745        31.014         2.565        15.852
  WS02004410WS02004411      1317.025      2576.924        31.090         2.572        15.893
  WS02004409WS02004410      1318.272      2579.281        31.125         2.576        15.912
  WS02004407WS02004409      1319.321      2581.245        31.153         2.578        15.926
  WS02004406WS02004407      1319.527      2581.565        31.156         2.578        15.927
  WS02004405WS02004406      1321.101      2584.491        31.207         2.583        15.956
  WS02004404WS02004405      1322.255      2586.743        31.215         2.582        15.957
  WS02004403WS02004404      1321.861      2586.306        31.127         2.570        15.900
  WS02004402WS02004403      1322.940      2588.336        31.161         2.574        15.918
  WS02004139WS02001211      1290.528      2239.324        87.039        10.296        52.717
  WS02004138WS02004139      1295.991      2248.747        87.397        10.338        52.933
  WS02003067WS02003066      1312.063      2567.523        30.947         2.559        15.816
  WS02001213WS02003059      1325.266      2293.413        90.739        10.764        55.047
  WS02001212WS02001213      1333.349      2307.175        91.316        10.833        55.398
  WS02001211WS02001212      1335.431      2310.600        91.490        10.854        55.506
  WS02003072WS02003073      2737.261      5018.788       131.775        14.592        77.189
  WS02003069WS02003072      2742.664      5027.885       132.196        14.644        77.449
  WS02003060WS02003069      2745.208      5032.526       132.305        14.655        77.511
  WS02003059WS02003060      1322.461      2288.474        90.580        10.746        54.953
  HS02004901HS02004770        31.242        62.187         0.612         0.047         0.291
  HS02004876HS02004881       101.412       206.325         2.154         0.154         1.046
  HS02004870HS02004876        77.888       158.594         1.700         0.122         0.826
  HS02004842HS02004848        14.996        29.644         0.314         0.022         0.147
  HS02004837HS02004842        19.708        37.151         0.788         0.082         0.444
  HS02004830HS02004837       101.807       187.057         5.288         0.600         3.141
  HS02004824HS02004830       102.661       188.505         5.363         0.610         3.188
  HS02004817HS02004824       158.468       303.820         6.498         0.682         3.738
  HS02004770HS02004777       119.650       241.820         2.495         0.175         1.169
  HS02004799HS02004480       374.825       742.449         8.578         0.702         4.270
  HS02004792HS02004799       343.088       676.949         8.002         0.666         3.998
  HS02004788HS02004792       180.017       356.944         4.687         0.402         2.399
  HS02004785HS02004788       121.031       244.026         2.637         0.193         1.259
  HS02004777HS02004785       120.352       242.948         2.575         0.185         1.220
  HS02004480HS02004478       464.813       922.678        10.233         0.827         5.069
  HS02004479HS02004480        93.772       186.479         1.955         0.161         0.984
  HS02004862HS02004870        60.203       121.270         1.340         0.100         0.653
  HS02004848HS02004852        26.761        53.672         0.548         0.038         0.256
  HS02004856HS02004862        41.868        85.059         0.850         0.058         0.403
  HS02004852HS02004856        26.785        53.715         0.548         0.038         0.257
  HS02004802HS02004478       198.962       387.626         7.079         0.709         3.984
  HS02004478WS02006287       662.713      1308.491        17.259         1.529         9.022
  HS02004817HS02004807       157.288       302.059         6.359         0.664         3.650
  HS02004807HS02004802       198.928       387.529         7.104         0.712         4.001
  YS02001759YS02001757       551.627      1074.064        10.647         0.757         5.189
  YS02001762YS02001759       365.474       701.358         7.344         0.524         3.600
  YS02001765YS02001762       367.044       705.861         7.385         0.528         3.622
  YS02001770YS02001767       375.806       726.809         7.468         0.528         3.649
  YS02001774YS02001770       865.660      1711.876        17.058         1.165         8.290
  YS02001779YS02001774       865.435      1711.601        17.126         1.176         8.337
  YS02001649YS02001757       763.985      1480.691        15.196         1.041         7.351
  YS02001767YS02001765       370.157       713.486         7.449         0.532         3.654
  YS02006561YS02001783      1601.731      3071.832        33.152         2.428        16.350
  YS02001783YS02001784      1601.675      3071.776        33.148         2.428        16.348
  YS02001784YS02001785      1609.118      3083.765        33.863         2.517        16.795
  YS02001788YS02001790      1609.784      3084.900        33.935         2.526        16.840
  YS02001790YS02001791      1610.918      3086.804        34.036         2.539        16.904
  YS02001791YS02001793      1610.859      3086.678        34.033         2.539        16.902
  YS02001910YS02001907       952.357      1850.329        20.359         1.454        10.126
  YS02001786YS02001788      1609.379      3084.235        33.892         2.521        16.813
  YS02001915YS02001910       951.732      1849.086        20.308         1.447        10.093
  YS02001918YS02001915       473.426       888.553        10.555         0.857         5.398
  YS02001923YS02001920       447.715       844.323         8.518         0.611         4.142
  YS02001926YS02001923       444.574       838.606         8.396         0.598         4.072
  YS02001929YS02001926       441.883       833.797         8.299         0.588         4.018
  YS02001920YS02001918       468.867       878.941        10.456         0.851         5.350
  YS02001629YS02163301       210.546       398.257         4.144         0.295         1.982
  YS02001619YS02001622       451.050       868.496         9.084         0.615         4.292
  YS02001622YS02001625       450.722       868.065         9.072         0.614         4.286
  YS02001625YS02001629       204.890       387.200         4.043         0.287         1.931
  YS02163301YS02001633       216.294       409.525         4.243         0.303         2.032
  YS02163601YS02164001       716.136      1349.913        13.904         1.022         6.719
  YS02164001YS02001641       716.814      1351.138        13.904         1.021         6.717
  YS02001641YS02001644       719.243      1355.532        13.939         1.024         6.733
  YS02001647YS02001649       923.350      1775.695        18.572         1.298         8.916
  YS02006553YS02006556       810.881      1517.706        17.547         1.318         8.779
  YS02006556YS02006558       811.568      1519.011        17.517         1.313         8.757
  YSB6556YSB1171              54.544       108.518         1.086         0.087         0.541
  YS02001907YS02006553       810.536      1517.032        17.588         1.325         8.808
  YS02006558YS02006561      1601.611      3071.573        33.151         2.428        16.349
  YS02001633YS02163601       716.663      1350.771        13.879         1.017         6.700
  YS02001644YS02001647       930.558      1789.977        18.683         1.307         8.968
  YS02001745YS02001748       597.859      1178.515        11.860         0.761         5.723
  YS02001748YS02001751       597.381      1177.735        11.870         0.763         5.732
  YS02001751YS02001754       596.731      1176.693        11.860         0.763         5.728
  YS02001754YS02001757       597.919      1178.596        12.029         0.786         5.836
  YS02001882YS02001884         5.922        10.791         0.109         0.008         0.053
  YS02001884YS02001887         8.648        15.913         0.159         0.012         0.078
  YS02001890YS02001895       827.247      1598.474        15.725         1.198         7.700
  YS02001895YS02001898       827.136      1598.392        15.719         1.198         7.697
  YS02001898YS02001901       827.174      1598.363        15.721         1.198         7.698
  YS02001901YS02001904       826.849      1597.944        15.728         1.199         7.704
  YS02001904YS02001907       827.739      1599.298        15.805         1.209         7.751
  YS02001887YS02001890      1075.893      2094.870        20.308         1.550         9.939
  YS02001652YS02001649       550.693      1064.939        10.996         0.802         5.192
  YS02001655YS02001652       551.110      1065.642        11.008         0.803         5.198
  YS02001658YS02001655       550.643      1064.927        10.923         0.792         5.142
  YS02001661YS02001658       551.074      1065.615        10.934         0.793         5.147
  YS02001664YS02001661       557.703      1075.545        11.109         0.804         5.227
  YSB1154YSB6556              54.069       107.775         1.038         0.081         0.511
  YSB1174YSB1171              37.704        75.534         0.747         0.059         0.369
  YSB1171HS02004479           93.613       186.167         1.960         0.162         0.989
  HS02004881HS02006253       113.948       232.386         2.394         0.170         1.162
  YS02001793JiankangQianchi      1611.343      3087.479        34.050         2.540        16.911
  YS02001757CaochengTiaoxuchi       776.515      1512.711        14.927         1.031         7.203
  WSF200WS02003060          1311.612      2566.695        30.939         2.559        15.812
  1                         2744.870      5030.007       132.774        14.722        77.826
  CC-Pump-1                  201.208       396.936         3.770         0.260         1.813
  CC-Pump-2                  112.915       222.303         2.123         0.147         1.021
  JK-Pump-1                  447.497       866.457         9.194         0.676         4.535
  JK-Pump-2                 1011.361      1960.499        20.711         1.521        10.207
  XR-Pump-1                  347.791       600.385        24.098         2.865        14.637
  XR-Pump-2                  321.702       558.643        21.593         2.552        13.071
  XR-Pump-3                  314.851       547.577        20.969         2.475        12.684
  XR-Pump-4                  314.851       547.577        20.969         2.475        12.684
  

  Analysis begun on:  Thu Jul 15 11:25:03 2021
  Analysis ended on:  Thu Jul 15 11:25:05 2021
  Total elapsed time: 00:00:02