
  EPA STORM WATER MANAGEMENT MODEL - VERSION 5.1 (Build 5.3.0.dev0)
  --------------------------------------------------------------

  WARNING 04: minimum elevation drop used for Conduit WS02004404WS02004405
  WARNING 03: negative offset ignored for Link YS02001904YS02001907
  
  *********************************************************
  NOTE: The summary statistics displayed in this report are
  based on results found at every computational time step,  
  not just on results from each reporting time step.
  *********************************************************
  
  ****************
  Analysis Options
  ****************
  Flow Units ............... LPS
  Process Models:
    Rainfall/Runoff ........ YES
    RDII ................... NO
    Snowmelt ............... NO
    Groundwater ............ NO
    Flow Routing ........... YES
    Ponding Allowed ........ NO
    Water Quality .......... YES
  Infiltration Method ...... HORTON
  Flow Routing Method ...... DYNWAVE
  Surcharge Method ......... EXTRAN
  Starting Date ............ 08/28/2015 08:00:00
  Ending Date .............. 08/28/2015 15:50:00
  Antecedent Dry Days ...... 8.0
  Report Time Step ......... 00:01:00
  Wet Time Step ............ 00:01:00
  Dry Time Step ............ 00:01:00
  Routing Time Step ........ 5.00 sec
  Variable Time Step ....... YES
  Maximum Trials ........... 8
  Number of Threads ........ 4
  Head Tolerance ........... 0.001500 m
  
  
  **************************        Volume         Depth
  Runoff Quantity Continuity     hectare-m            mm
  **************************     ---------       -------
  Total Precipitation ......        10.887        23.836
  Evaporation Loss .........         0.000         0.000
  Infiltration Loss ........         1.411         3.089
  Surface Runoff ...........         8.292        18.155
  Final Storage ............         1.186         2.596
  Continuity Error (%) .....        -0.016
  
  
  **************************           COD            SS            TN            TP         NH4-N
  Runoff Quality Continuity             kg            kg            kg            kg            kg
  **************************    ----------    ----------    ----------    ----------    ----------
  Initial Buildup ..........     41378.656     70582.865      1804.177       168.684      1032.807
  Surface Buildup ..........        41.425        91.431         2.568         0.227         1.442
  Wet Deposition ...........         0.000         0.000         0.000         0.000         0.000
  Sweeping Removal .........         0.000         0.000         0.000         0.000         0.000
  Infiltration Loss ........       164.554       320.127         3.263         0.236         1.574
  BMP Removal ..............         0.000         0.000         0.000         0.000         0.000
  Surface Runoff ...........      9366.500     18283.806       183.722        12.955        88.133
  Remaining Buildup ........     31885.964     52064.522      1619.692       155.715       944.511
  Continuity Error (%) .....         0.007         0.008         0.004         0.003         0.003
  
  
  **************************        Volume        Volume
  Flow Routing Continuity        hectare-m      10^6 ltr
  **************************     ---------     ---------
  Dry Weather Inflow .......         0.616         6.165
  Wet Weather Inflow .......         8.290        82.902
  Groundwater Inflow .......         0.000         0.000
  RDII Inflow ..............         0.000         0.000
  External Inflow ..........         0.102         1.024
  External Outflow .........         2.140        21.401
  Flooding Loss ............         6.385        63.851
  Evaporation Loss .........         0.000         0.000
  Exfiltration Loss ........         0.000         0.000
  Initial Stored Volume ....         0.076         0.761
  Final Stored Volume ......         0.670         6.699
  Continuity Error (%) .....        -1.211
  
  
  **************************           COD            SS            TN            TP         NH4-N
  Quality Routing Continuity            kg            kg            kg            kg            kg
  **************************    ----------    ----------    ----------    ----------    ----------
  Dry Weather Inflow .......      1541.201      2465.922       147.955        18.494        92.472
  Wet Weather Inflow .......      9365.361     18281.826       183.697        12.953        88.120
  Groundwater Inflow .......         0.000         0.000         0.000         0.000         0.000
  RDII Inflow ..............         0.000         0.000         0.000         0.000         0.000
  External Inflow ..........       183.418       293.469        17.608         2.201        11.005
  External Outflow .........      2701.596      4944.674       132.136        14.691        77.550
  Flooding Loss ............      7619.151     14705.333       188.629        16.091        98.005
  Exfiltration Loss ........         0.000         0.000         0.000         0.000         0.000
  Mass Reacted .............         0.000         0.000         0.000         0.000         0.000
  Initial Stored Mass ......         0.000         0.000         0.000         0.000         0.000
  Final Stored Mass ........       666.215      1223.056        25.242         2.581        14.305
  Continuity Error (%) .....         0.929         0.799         0.931         0.849         0.907
  
  
  *************************
  Highest Continuity Errors
  *************************
  Node YS02001884 (8.46%)
  Node HS02004842 (7.73%)
  Node JK-storage (-7.51%)
  Node HS02004817 (1.58%)
  Node WS02006253 (1.44%)
  
  
  ***************************
  Time-Step Critical Elements
  ***************************
  Link WS02006252WS02006251 (47.59%)
  Link WS02006280WS02006229 (15.55%)
  Link YS02001793JiankangQianchi (7.89%)
  Link WS02006238WS02006235 (6.55%)
  Link YS02006556YS02006558 (3.55%)
  
  
  ********************************
  Highest Flow Instability Indexes
  ********************************
  Link WS02006113WS02006111 (45)
  Link YS02163601YS02164001 (38)
  Link YS02001629YS02163301 (36)
  Link YS02163301YS02001633 (36)
  Link YS02001619YS02001622 (35)
  
  
  *************************
  Routing Time Step Summary
  *************************
  Minimum Time Step           :     0.50 sec
  Average Time Step           :     1.41 sec
  Maximum Time Step           :     5.00 sec
  Percent in Steady State     :     0.00
  Average Iterations per Step :     4.16
  Percent Not Converging      :    17.07
  
  
  ***************************
  Subcatchment Runoff Summary
  ***************************
  
  ------------------------------------------------------------------------------------------------------------------------------
                            Total      Total      Total      Total     Imperv       Perv      Total       Total     Peak  Runoff
                           Precip      Runon       Evap      Infil     Runoff     Runoff     Runoff      Runoff   Runoff   Coeff
  Subcatchment                 mm         mm         mm         mm         mm         mm         mm    10^6 ltr      LPS
  ------------------------------------------------------------------------------------------------------------------------------
  sub0                      23.84       0.00       0.00       0.77      22.12       0.90      23.02        0.02     5.06   0.966
  sub1                      23.84       0.00       0.00       1.33      21.12       1.29      22.41        0.15    33.98   0.940
  sub2                      23.84       0.00       0.00       5.60      14.93       3.22      18.15        0.17    32.49   0.761
  sub3                      23.84       0.00       0.00       5.94      14.89       2.88      17.77        0.40    70.76   0.745
  sub4                      23.84       0.00       0.00       1.46      20.95       1.16      22.11        0.46    81.55   0.928
  sub5                      23.84       0.00       0.00       0.82      22.07       0.85      22.92        0.26    59.56   0.962
  sub7                      23.84       0.00       0.00       1.03      21.63       1.11      22.74        0.08    19.22   0.954
  sub8                      23.84       0.00       0.00       1.05      21.62       1.10      22.72        0.15    35.26   0.953
  sub9                      23.84       0.00       0.00       1.05      21.62       1.10      22.71        0.11    26.33   0.953
  sub10                     23.84       0.00       0.00       0.94      21.84       0.97      22.81        0.25    58.74   0.957
  sub11                     23.84       0.00       0.00       0.92      21.86       0.99      22.85        0.27    65.28   0.959
  sub12                     23.84       0.00       0.00       1.50      20.69       1.60      22.29        0.19    51.10   0.935
  sub14                     23.84       0.00       0.00       1.05      21.61       1.09      22.71        0.22    51.81   0.953
  sub15                     23.84       0.00       0.00       4.05      16.62       3.10      19.72        0.34    74.01   0.827
  sub16                     23.84       0.00       0.00       4.23      15.93       3.63      19.56        0.20    48.29   0.821
  sub17                     23.84       0.00       0.00       4.13      16.17       3.50      19.67        0.17    39.49   0.825
  sub22                     23.84       0.00       0.00       6.08      13.55       4.17      17.72        1.12   235.47   0.743
  sub23                     23.84       0.00       0.00       5.01      14.97       3.81      18.78        0.90   197.86   0.788
  sub60                     23.84       0.00       0.00       2.13      18.82       0.73      19.55        5.93   667.30   0.820
  sub61                     23.84       0.00       0.00       3.01      18.52       1.04      19.56        6.03   717.95   0.821
  sub62                     23.84       0.00       0.00       1.25      20.31       0.65      20.96        6.44   751.14   0.880
  sub63                     23.84       0.00       0.00       5.57      16.04       1.34      17.38        5.26   638.31   0.729
  sub64                     23.84       0.00       0.00       2.78      18.11       0.79      18.90        5.75   644.78   0.793
  sub65                     23.84       0.00       0.00       2.36      18.46       0.74      19.20        5.90   658.64   0.806
  sub66                     23.84       0.00       0.00       5.92      15.37       0.99      16.36        5.02   574.80   0.686
  sub67                     23.84       0.00       0.00       1.18      20.92       0.73      21.65        6.68   814.16   0.908
  sub68                     23.84       0.00       0.00       2.35      19.35       0.99      20.34        6.25   750.28   0.853
  sub69                     23.84       0.00       0.00       2.36      19.61       1.21      20.83        4.87   655.18   0.874
  sub70                     23.84      21.26       0.00       9.95      28.09       5.22      33.30        7.62   861.91   0.738
  sub71                     23.84       0.00       0.00       1.29      20.01       0.62      20.63        4.87   557.88   0.866
  sub72                     23.84       0.00       0.00       1.26      17.48       0.41      17.89        3.64   352.81   0.750
  1                         23.84      32.43       0.00       1.37      34.56      12.51      47.07       11.06  1042.57   0.837
  2                         23.84       0.00       0.00       3.02       5.81       5.77      11.58        4.63   438.27   0.486
  
  
  ****************************
  Subcatchment Washoff Summary
  ****************************
  
  ------------------------------------------------------------------------------------------
                                 COD            SS            TN            TP         NH4-N
  Subcatchment                    kg            kg            kg            kg            kg
  ------------------------------------------------------------------------------------------
  sub0                         5.447        10.648         0.101         0.009         0.050
  sub1                        23.688        48.042         0.463         0.033         0.225
  sub2                        16.966        34.031         0.358         0.025         0.167
  sub3                        41.902        83.507         0.867         0.061         0.406
  sub4                        55.504       114.752         1.120         0.071         0.542
  sub5                        53.600       106.723         1.016         0.079         0.498
  sub7                        11.854        24.343         0.233         0.016         0.114
  sub8                        17.650        37.231         0.360         0.022         0.174
  sub9                        15.191        31.538         0.304         0.020         0.147
  sub10                       44.044        88.979         0.851         0.062         0.416
  sub11                       42.563        86.978         0.834         0.059         0.406
  sub12                       37.050        74.157         0.712         0.055         0.347
  sub14                       32.601        66.963         0.643         0.044         0.313
  sub15                       47.434        94.407         0.941         0.071         0.448
  sub16                       30.857        61.246         0.608         0.047         0.290
  sub17                       28.315        55.641         0.547         0.044         0.262
  sub22                      161.087       316.749         3.138         0.242         1.488
  sub23                       88.506       179.789         1.886         0.128         0.879
  sub60                      597.605      1177.766        11.858         0.760         5.721
  sub61                      735.660      1436.196        13.939         0.989         6.759
  sub62                      737.985      1463.009        14.530         0.959         7.028
  sub63                      558.710      1076.727        11.142         0.807         5.242
  sub64                      776.597      1477.973        14.527         1.087         6.999
  sub65                      790.465      1509.997        14.865         1.095         7.170
  sub66                      450.962       868.123         9.087         0.615         4.293
  sub67                     1073.899      2091.719        20.029         1.513         9.761
  sub68                      789.681      1552.112        15.327         1.072         7.390
  sub69                      691.072      1362.692        13.304         0.964         6.425
  sub70                     1288.654      2534.730        26.762         1.929        12.763
  sub71                      488.493       980.368         9.974         0.604         4.804
  sub72                      441.504       833.180         8.283         0.587         4.008
  1                         1052.298      2081.048        22.042         1.588        10.427
  2                          118.381       219.864         3.138         0.193         1.360
  ------------------------------------------------------------------------------------------
  System                   11346.226     22181.229       223.788        15.848       107.320
  
  
  ******************
  Node Depth Summary
  ******************
  
  ---------------------------------------------------------------------------------
                                 Average  Maximum  Maximum  Time of Max    Reported
                                   Depth    Depth      HGL   Occurrence   Max Depth
  Node                 Type       Meters   Meters   Meters  days hr:min      Meters
  ---------------------------------------------------------------------------------
  WS02001211           JUNCTION     0.78     0.86     5.69     0  01:43        0.86
  WS02001212           JUNCTION     0.49     0.59     5.65     0  01:42        0.59
  WS02001213           JUNCTION     0.73     0.87     5.63     0  01:41        0.87
  WS02003069           JUNCTION     0.52     0.74     5.32     0  01:43        0.74
  WS02003072           JUNCTION     0.58     0.78     5.15     0  01:41        0.78
  WS02003073           JUNCTION     0.35     0.49     4.55     0  01:42        0.49
  WS02003060           JUNCTION     0.46     0.65     5.58     0  01:40        0.65
  WS02003066           JUNCTION     0.24     0.40     5.95     0  01:35        0.40
  WS02003059           JUNCTION     0.78     0.92     5.61     0  01:43        0.92
  WS02003067           JUNCTION     0.58     0.84     6.16     0  01:35        0.84
  WS02004401           JUNCTION     0.74     1.47     7.47     0  01:32        1.29
  WS02004402           JUNCTION     0.77     1.42     7.38     0  01:32        1.26
  WS02004403           JUNCTION     0.78     1.37     7.30     0  01:32        1.23
  WS02004404           JUNCTION     0.85     1.40     7.25     0  01:32        1.27
  WS02004406           JUNCTION     0.85     1.25     7.08     0  01:32        1.19
  WS02004409           JUNCTION     0.54     1.04     6.81     0  01:35        1.02
  WS02004410           JUNCTION     0.55     1.00     6.72     0  01:35        1.00
  WS02004411           JUNCTION     0.56     0.97     6.65     0  01:35        0.97
  WS02004412           JUNCTION     0.57     0.94     6.58     0  01:35        0.93
  WS02004413           JUNCTION     0.72     1.05     6.52     0  01:35        1.04
  WS02004405           JUNCTION     0.84     1.36     7.21     0  01:32        1.24
  WS02006109           JUNCTION     0.87     1.92     8.53     0  01:33        1.88
  WS02006110           JUNCTION     0.83     1.80     8.39     0  01:32        1.62
  WS02006111           JUNCTION     0.31     1.28     7.99     0  01:32        1.00
  WS02006112           JUNCTION     0.94     1.90     7.79     0  01:32        1.65
  WS02006113           JUNCTION     0.40     1.45     8.35     0  01:32        1.07
  WS02006115           JUNCTION     0.65     1.54     7.67     0  01:32        1.29
  WS02006116           JUNCTION     0.73     1.54     7.58     0  01:32        1.32
  WS02006230           JUNCTION     0.89     2.14     8.88     0  01:33        2.11
  WS02006231           JUNCTION     0.64     1.74     8.87     0  01:33        1.72
  WS02006232           JUNCTION     0.77     1.81     8.85     0  01:33        1.79
  WS02006234           JUNCTION     0.69     1.68     8.83     0  01:33        1.66
  WS02006235           JUNCTION     0.73     1.67     8.83     0  01:34        1.64
  WS02006238           JUNCTION     0.75     1.68     8.83     0  01:34        1.66
  WS02006240           JUNCTION     0.64     1.50     8.79     0  01:33        1.48
  WS02006242           JUNCTION     0.69     1.55     8.82     0  05:23        1.48
  WS02006243           JUNCTION     0.57     1.33     8.75     0  01:34        1.30
  WS02006245           JUNCTION     0.54     1.24     8.73     0  01:33        1.23
  WS02006247           JUNCTION     0.54     1.22     8.72     0  04:41        1.20
  WS02006248           JUNCTION     0.48     1.10     8.69     0  01:32        1.10
  WS02006249           JUNCTION     0.49     1.09     8.69     0  01:32        1.09
  WS02006239           JUNCTION     0.70     1.60     8.81     0  01:34        1.58
  WS02006251           JUNCTION     0.46     1.46     9.13     0  01:32        1.13
  WS02006252           JUNCTION     0.28     0.98     9.22     0  03:29        0.68
  WS02006253           JUNCTION     0.49     2.12     9.76     0  01:32        1.15
  WS02006256           JUNCTION     1.77     2.35     9.28     0  00:12        2.35
  WS02004138           JUNCTION     0.19     0.20     7.45     0  00:00        0.19
  WS02004139           JUNCTION     0.73     0.80     5.71     0  01:42        0.80
  WS02004407           JUNCTION     0.24     0.42     6.74     0  01:35        0.42
  WS02006228           JUNCTION     0.90     2.11     8.76     0  01:33        2.07
  WS02006229           JUNCTION     0.89     2.21     8.90     0  01:33        2.17
  WS02006280           JUNCTION     0.10     0.51     8.78     0  01:33        0.50
  WS02006284           JUNCTION     0.40     0.72     9.12     0  01:34        0.72
  WS02006287           JUNCTION     0.14     0.46     9.42     0  01:34        0.46
  WSF200               JUNCTION     0.24     0.45     5.69     0  01:36        0.45
  HS02004901           JUNCTION     0.16     0.43    10.25     0  01:33        0.43
  HS02004881           JUNCTION     0.01     0.09     9.12     0  01:32        0.06
  HS02004876           JUNCTION     0.06     0.19     9.22     0  01:32        0.19
  HS02004870           JUNCTION     0.03     0.11     9.40     0  01:35        0.11
  HS02004862           JUNCTION     0.03     0.13     9.51     0  01:35        0.13
  HS02004856           JUNCTION     0.09     0.17     9.59     0  01:35        0.17
  HS02004852           JUNCTION     0.02     0.10     9.61     0  01:35        0.10
  HS02004848           JUNCTION     0.02     0.08     9.68     0  01:36        0.08
  HS02004842           JUNCTION     0.34     0.41     9.68     0  01:35        0.41
  HS02004837           JUNCTION     0.04     0.10     9.68     0  01:35        0.10
  HS02004830           JUNCTION     0.05     0.15     9.62     0  01:35        0.15
  HS02004824           JUNCTION     0.04     0.20     9.61     0  01:35        0.20
  HS02004817           JUNCTION     0.47     0.77     9.61     0  01:34        0.77
  HS02004807           JUNCTION     0.16     0.44     9.61     0  01:35        0.44
  HS02004802           JUNCTION     0.19     0.47     9.60     0  01:34        0.47
  HS02004799           JUNCTION     0.17     0.55     9.76     0  01:33        0.55
  HS02004792           JUNCTION     0.06     0.27     9.79     0  01:33        0.27
  HS02004788           JUNCTION     0.04     0.19    10.09     0  01:34        0.19
  HS02004785           JUNCTION     0.07     0.29    10.19     0  01:33        0.29
  HS02004777           JUNCTION     0.18     0.44    10.24     0  01:33        0.44
  HS02004770           JUNCTION     0.15     0.42    10.25     0  01:33        0.42
  HS02004480           JUNCTION     0.12     0.46     9.70     0  01:33        0.46
  HS02004479           JUNCTION     0.16     0.49     9.70     0  01:34        0.49
  HS02004478           JUNCTION     0.09     0.35     9.58     0  01:34        0.35
  YS02001745           JUNCTION     0.82     1.23     8.75     0  01:29        1.05
  YS02001748           JUNCTION     1.23     1.83     8.91     0  01:28        1.47
  YS02001751           JUNCTION     1.41     1.72     8.60     0  01:29        1.64
  YS02001754           JUNCTION     1.66     1.92     8.53     0  01:29        1.89
  YS02001762           JUNCTION     1.85     2.08     8.48     0  02:44        2.07
  YS02001765           JUNCTION     1.80     2.02     8.47     0  02:48        2.02
  YS02001767           JUNCTION     1.77     1.98     8.47     0  02:47        1.97
  YS02001770           JUNCTION     1.76     1.95     8.44     0  02:06        1.95
  YS02001774           JUNCTION     1.82     2.00     8.42     0  03:17        1.99
  YS02001779           JUNCTION     1.56     1.68     8.37     0  01:27        1.68
  YS02001882           JUNCTION     0.81     1.75     8.46     0  01:32        1.64
  YS02001884           JUNCTION     0.90     1.84     8.46     0  01:32        1.74
  YS02001759           JUNCTION     1.89     2.12     8.48     0  02:44        2.11
  YS02001887           JUNCTION     0.98     1.89     8.42     0  01:32        1.82
  YS02001890           JUNCTION     1.01     1.81     8.32     0  01:32        1.81
  YS02001898           JUNCTION     0.77     1.66     8.39     0  01:32        1.56
  YS02001901           JUNCTION     0.89     1.74     8.35     0  01:32        1.67
  YS02001904           JUNCTION     0.86     1.67     8.30     0  01:32        1.63
  YS02001907           JUNCTION     1.19     1.96     8.25     0  01:33        1.96
  YS02001910           JUNCTION     0.99     1.97     8.48     0  01:33        1.92
  YS02001915           JUNCTION     0.80     1.91     8.63     0  01:33        1.85
  YS02001918           JUNCTION     0.53     1.81     8.88     0  01:33        1.74
  YS02001619           JUNCTION     1.35     1.61     8.54     0  01:27        1.54
  YS02001629           JUNCTION     1.70     1.85     8.40     0  01:27        1.85
  YS02001641           JUNCTION     1.79     1.96     8.40     0  01:29        1.93
  YS02001644           JUNCTION     1.79     1.92     8.35     0  01:29        1.92
  YS02001652           JUNCTION     1.66     2.03     8.63     0  01:29        1.87
  YS02001655           JUNCTION     1.43     1.96     8.81     0  04:42        1.64
  YS02001920           JUNCTION     0.63     2.10     9.11     0  01:33        1.80
  YS02001923           JUNCTION     0.44     2.00     9.26     0  01:33        1.55
  YS02001926           JUNCTION     0.45     1.90     9.35     0  01:33        1.37
  YS02001929           JUNCTION     0.29     1.78     9.47     0  01:33        1.13
  YS02001658           JUNCTION     1.16     1.90     9.05     0  04:42        1.39
  YS02001661           JUNCTION     0.92     1.86     9.26     0  04:42        1.18
  YS02001664           JUNCTION     0.43     0.70     8.63     0  01:30        0.70
  YS02001622           JUNCTION     1.37     1.62     8.52     0  01:27        1.54
  YS02001633           JUNCTION     1.79     1.98     8.43     0  01:29        1.94
  YS02001649           JUNCTION     1.86     2.05     8.44     0  01:29        2.05
  YS02001757           JUNCTION     1.98     2.21     8.47     0  02:23        2.21
  YS02001895           JUNCTION     0.77     1.64     8.38     0  01:32        1.56
  YS02001625           JUNCTION     1.65     1.78     8.38     0  01:27        1.78
  YS02163301           JUNCTION     1.73     1.90     8.42     0  01:29        1.89
  YS02163601           JUNCTION     1.84     2.03     8.43     0  01:29        1.98
  YS02164001           JUNCTION     1.77     1.96     8.42     0  01:29        1.91
  YS02001647           JUNCTION     1.63     1.80     8.41     0  01:29        1.79
  YSB1154              JUNCTION     0.30     0.65     9.70     0  01:34        0.65
  YSB6556              JUNCTION     0.19     0.53     9.70     0  01:33        0.53
  YSB1174              JUNCTION     0.25     0.59     9.70     0  01:33        0.59
  YSB1171              JUNCTION     0.45     0.80     9.70     0  01:34        0.80
  YS02006553           JUNCTION     1.19     1.97     8.26     0  01:51        1.97
  YS02006561           JUNCTION     0.49     1.27     7.93     0  01:32        1.09
  YS02006556           JUNCTION     1.16     1.94     8.25     0  01:49        1.93
  YS02006558           JUNCTION     1.20     1.99     8.25     0  01:52        1.98
  YS02001783           JUNCTION     0.76     1.66     7.80     0  01:32        1.48
  YS02001784           JUNCTION     0.76     1.64     7.71     0  01:32        1.42
  YS02001786           JUNCTION     0.68     1.90     7.93     0  01:32        1.26
  YS02001788           JUNCTION     0.60     2.24     8.22     0  01:32        1.13
  YS02001790           JUNCTION     0.74     1.96     7.60     0  01:32        1.29
  YS02001791           JUNCTION     0.72     1.70     7.17     0  06:36        1.28
  YS02001793           JUNCTION     1.01     1.93     6.77     0  01:32        1.80
  WSC                  OUTFALL      0.35     0.49     1.16     0  01:43        0.49
  JK-storage           STORAGE      3.70     5.80     6.60     0  01:32        5.80
  CC-storage           STORAGE      1.23     1.48     8.48     0  03:04        1.48
  XR-storage           STORAGE      7.17     7.72     5.72     0  01:49        7.72
  
  
  *******************
  Node Inflow Summary
  *******************
  
  -------------------------------------------------------------------------------------------------
                                  Maximum  Maximum                  Lateral       Total        Flow
                                  Lateral    Total  Time of Max      Inflow      Inflow     Balance
                                   Inflow   Inflow   Occurrence      Volume      Volume       Error
  Node                 Type           LPS      LPS  days hr:min    10^6 ltr    10^6 ltr     Percent
  -------------------------------------------------------------------------------------------------
  WS02001211           JUNCTION      7.35   391.60     0  03:15       0.207        10.5       0.386
  WS02001212           JUNCTION      0.00   395.95     0  03:14           0        10.4       0.237
  WS02001213           JUNCTION      0.00   399.68     0  03:14           0        10.4       0.281
  WS02003069           JUNCTION      0.32  1378.90     0  01:42     0.00902        21.5       0.183
  WS02003072           JUNCTION      0.00  1379.05     0  01:43           0        21.4       0.212
  WS02003073           JUNCTION      1.82  1380.74     0  01:42      0.0514        21.5       0.241
  WS02003060           JUNCTION     16.53  1379.29     0  01:42       0.466        21.5       0.174
  WS02003066           JUNCTION      0.00   999.85     0  01:35           0        10.7       0.054
  WS02003059           JUNCTION      0.00   404.30     0  03:13           0        10.4       0.405
  WS02003067           JUNCTION      0.00   995.25     0  01:35           0        10.7       0.105
  WS02004401           JUNCTION      0.00  1015.82     0  01:34           0          11       0.245
  WS02004402           JUNCTION      0.00  1016.58     0  01:34           0          11       0.225
  WS02004403           JUNCTION      0.00  1016.98     0  01:34           0          11       0.200
  WS02004404           JUNCTION      0.16  1018.18     0  01:34     0.00457        10.9       0.143
  WS02004406           JUNCTION      0.00  1019.72     0  01:34           0        10.9       0.351
  WS02004409           JUNCTION      0.00  1017.03     0  01:34           0        10.9       0.215
  WS02004410           JUNCTION      0.00  1006.89     0  01:34           0        10.8       0.233
  WS02004411           JUNCTION      0.00   993.37     0  01:36           0        10.8       0.231
  WS02004412           JUNCTION      0.00   994.05     0  01:36           0        10.8       0.240
  WS02004413           JUNCTION      0.00   994.70     0  01:35           0        10.8       0.337
  WS02004405           JUNCTION      0.04  1018.72     0  01:34     0.00107        10.9       0.214
  WS02006109           JUNCTION      1.23   978.11     0  01:34      0.0347          11       0.120
  WS02006110           JUNCTION      0.00   978.33     0  01:34           0          11       0.221
  WS02006111           JUNCTION      0.00   977.82     0  01:34           0        10.9       0.054
  WS02006112           JUNCTION     39.49  1016.62     0  01:34       0.169        11.1       0.306
  WS02006113           JUNCTION      0.00   978.08     0  01:34           0          11       0.132
  WS02006115           JUNCTION      0.00  1016.11     0  01:34           0        11.1       0.252
  WS02006116           JUNCTION      0.00  1015.55     0  01:34           0          11       0.217
  WS02006230           JUNCTION     10.28   533.31     0  07:43        0.29        6.58       0.277
  WS02006231           JUNCTION      0.00   523.51     0  07:43           0        6.28       0.249
  WS02006232           JUNCTION      0.00   523.36     0  07:43           0        6.27       0.291
  WS02006234           JUNCTION      0.00   523.56     0  07:43           0        6.26       0.160
  WS02006235           JUNCTION      0.00   523.35     0  07:43           0        6.41       0.191
  WS02006238           JUNCTION      0.00   331.08     0  06:43           0        2.68       0.102
  WS02006240           JUNCTION      0.00   343.27     0  06:42           0        2.66       0.602
  WS02006242           JUNCTION      0.00   351.93     0  06:42           0        2.66       0.771
  WS02006243           JUNCTION      0.00   361.67     0  05:21           0        2.65       0.495
  WS02006245           JUNCTION      0.00   367.69     0  05:21           0        2.65       0.660
  WS02006247           JUNCTION      0.00   371.72     0  05:21           0        2.66       0.469
  WS02006248           JUNCTION      0.00   376.46     0  05:21           0         2.7       0.283
  WS02006249           JUNCTION      0.00   451.00     0  03:29           0        3.06       0.596
  WS02006239           JUNCTION      0.00   334.30     0  06:42           0        2.67       0.249
  WS02006251           JUNCTION      0.08   432.65     0  03:29     0.00217        3.12       0.566
  WS02006252           JUNCTION      0.00   400.00     0  03:30           0        2.16       0.035
  WS02006253           JUNCTION      5.06   278.82     0  01:32      0.0186       0.968       1.460
  WS02006256           JUNCTION      0.00   983.00     0  01:40           0        14.1       0.003
  WS02004138           JUNCTION      0.00   380.00     0  00:00           0        10.3       0.066
  WS02004139           JUNCTION      0.32   394.45     0  00:00     0.00905        10.3       0.441
  WS02004407           JUNCTION      0.00  1019.59     0  01:34           0        10.9       0.097
  WS02006228           JUNCTION      0.00   976.84     0  01:34           0          11       0.114
  WS02006229           JUNCTION      0.00  1053.64     0  01:32           0        11.1       0.149
  WS02006280           JUNCTION      0.00   937.74     0  01:34           0        4.56       0.013
  WS02006284           JUNCTION      0.10   934.65     0  01:35      0.0027        4.56       0.018
  WS02006287           JUNCTION      0.00   934.66     0  01:35           0        4.56       0.019
  WSF200               JUNCTION      0.00  1000.72     0  01:36           0        10.7       0.059
  HS02004901           JUNCTION     48.29    48.29     0  01:31       0.205       0.205       0.867
  HS02004881           JUNCTION     19.22   195.99     0  01:33      0.0766       0.897       0.069
  HS02004876           JUNCTION     33.98   176.89     0  01:34       0.149       0.821       0.067
  HS02004870           JUNCTION     35.26   143.34     0  01:34       0.145       0.672       0.017
  HS02004862           JUNCTION     32.69   109.55     0  01:35       0.175       0.527       0.033
  HS02004856           JUNCTION     26.33    76.92     0  01:35       0.109       0.354       0.413
  HS02004852           JUNCTION      0.00    51.63     0  01:36           0       0.245       0.025
  HS02004848           JUNCTION     70.76    70.76     0  01:38         0.4         0.4       0.013
  HS02004842           JUNCTION      0.00    21.86     0  01:49           0       0.168       8.373
  HS02004837           JUNCTION     65.09    82.02     0  01:35       0.431       0.586       0.138
  HS02004830           JUNCTION      0.15    82.12     0  01:35     0.00423       0.576       0.215
  HS02004824           JUNCTION     81.60   164.06     0  01:39       0.463        1.04       0.052
  HS02004817           JUNCTION      0.60   166.60     0  01:39      0.0169        1.05       1.605
  HS02004807           JUNCTION     65.28   225.40     0  01:36       0.265         1.3       0.343
  HS02004802           JUNCTION      0.00   226.45     0  01:37           0         1.3       0.296
  HS02004799           JUNCTION     51.81   605.47     0  01:33       0.216        2.82       0.117
  HS02004792           JUNCTION    235.75   554.35     0  01:33        1.13        2.61       0.015
  HS02004788           JUNCTION     75.68   319.93     0  01:33       0.386        1.48       0.026
  HS02004785           JUNCTION      0.15   244.47     0  01:33     0.00423         1.1       0.047
  HS02004777           JUNCTION      0.03   244.66     0  01:32    0.000846         1.1       0.479
  HS02004770           JUNCTION    197.86   245.55     0  01:32       0.896         1.1       0.279
  HS02004480           JUNCTION      0.00   713.04     0  01:33           0        3.27       0.024
  HS02004479           JUNCTION      0.00   107.71     0  01:33           0       0.464       0.161
  HS02004478           JUNCTION      0.00   934.58     0  01:35           0        4.56       0.007
  YS02001745           JUNCTION    667.30   667.30     0  03:01        5.93        5.93       0.186
  YS02001748           JUNCTION      0.04   667.49     0  03:01     0.00127        5.92       0.382
  YS02001751           JUNCTION      0.01   667.78     0  03:01     0.00031         5.9       0.410
  YS02001754           JUNCTION      0.26   668.38     0  03:01     0.00733        5.88       0.416
  YS02001762           JUNCTION      0.00   369.13     0  01:32           0        3.34       0.643
  YS02001765           JUNCTION      0.00   368.98     0  01:32           0        3.33       0.738
  YS02001767           JUNCTION      0.54   369.07     0  01:35      0.0151        3.36       1.070
  YS02001770           JUNCTION    751.30  1113.37     0  03:01        6.45        8.67       0.362
  YS02001774           JUNCTION      0.00   851.17     0  02:48           0           7       0.358
  YS02001779           JUNCTION      0.01   851.17     0  02:48    0.000141        6.97       0.222
  YS02001882           JUNCTION      0.00    35.44     0  01:30           0      0.0379       8.139
  YS02001884           JUNCTION      0.00    58.01     0  01:29           0       0.077       9.239
  YS02001759           JUNCTION    717.99   898.13     0  01:42        6.03        7.12       0.322
  YS02001887           JUNCTION    814.61   815.72     0  01:57        6.69        6.72       0.132
  YS02001890           JUNCTION      0.00   815.88     0  01:56           0        6.67       0.151
  YS02001898           JUNCTION      0.00   594.82     0  01:32           0        5.39       0.048
  YS02001901           JUNCTION      0.00   599.09     0  01:32           0        5.39       0.153
  YS02001904           JUNCTION      0.00   600.62     0  01:32           0        5.38       0.134
  YS02001907           JUNCTION      0.00  1427.94     0  03:01           0          14       0.178
  YS02001910           JUNCTION      0.00   911.24     0  03:01           0         8.6       0.137
  YS02001915           JUNCTION    557.90   911.09     0  03:01        4.87        8.65       0.085
  YS02001918           JUNCTION      0.00   437.00     0  01:32           0        3.81       0.063
  YS02001619           JUNCTION    574.80   574.80     0  03:01        5.02        5.02       0.239
  YS02001629           JUNCTION      0.00   280.28     0  01:26           0        2.09       1.378
  YS02001641           JUNCTION      0.00   458.45     0  01:28           0        6.13       0.343
  YS02001644           JUNCTION    644.82  1924.48     0  03:01        5.75        20.3       0.130
  YS02001652           JUNCTION      0.00   639.58     0  03:01           0        5.22       0.440
  YS02001655           JUNCTION      0.15   639.37     0  03:01     0.00434        5.24       0.492
  YS02001920           JUNCTION      2.87   402.05     0  01:33      0.0809        3.79       0.091
  YS02001923           JUNCTION      0.04   401.14     0  01:33     0.00106        3.69       0.040
  YS02001926           JUNCTION      0.05   460.96     0  01:33     0.00147        3.66       0.087
  YS02001929           JUNCTION    352.81   352.81     0  03:01        3.64        3.65       0.010
  YS02001658           JUNCTION      0.00   638.97     0  03:01           0        5.26       0.463
  YS02001661           JUNCTION      0.00   801.04     0  01:40           0        5.53      -0.036
  YS02001664           JUNCTION    638.31   638.31     0  03:01        5.26        5.54       0.098
  YS02001622           JUNCTION      0.00   574.87     0  03:01           0        5.01       0.635
  YS02001633           JUNCTION    658.84   658.84     0  03:01        5.91        7.08       0.451
  YS02001649           JUNCTION      0.00  1447.44     0  03:01           0          12       0.310
  YS02001757           JUNCTION      0.00  2182.73     0  01:41           0        12.6       0.730
  YS02001895           JUNCTION      0.00   591.41     0  01:32           0        5.39       0.126
  YS02001625           JUNCTION      0.00   801.64     0  03:01           0        5.86       0.683
  YS02163301           JUNCTION      0.00   278.59     0  01:26           0        2.09       1.145
  YS02163601           JUNCTION      0.11   455.98     0  01:28      0.0031        6.14       0.489
  YS02164001           JUNCTION      0.00   456.26     0  01:28           0        6.13       0.327
  YS02001647           JUNCTION      0.00   846.70     0  03:17           0        9.17       0.310
  YSB1154              JUNCTION     59.56    59.56     0  01:33        0.26        0.26       0.556
  YSB6556              JUNCTION      0.00    59.44     0  01:33           0       0.261       0.488
  YSB1174              JUNCTION     51.10    51.10     0  01:30       0.195       0.195       0.658
  YSB1171              JUNCTION      0.00   108.26     0  01:32           0       0.462       1.395
  YS02006553           JUNCTION      0.00   731.59     0  04:02           0        7.58       0.213
  YS02006561           JUNCTION      0.00  1058.02     0  01:32           0        13.8       0.008
  YS02006556           JUNCTION      0.00   731.48     0  04:02           0        7.59       0.151
  YS02006558           JUNCTION    751.16  1057.38     0  01:32        6.28        13.8       0.038
  YS02001783           JUNCTION      0.00  1023.97     0  01:31           0        13.8       0.020
  YS02001784           JUNCTION      1.06  1025.13     0  01:31      0.0299        13.8       0.030
  YS02001786           JUNCTION      0.06  1025.08     0  01:31     0.00159        13.8       0.029
  YS02001788           JUNCTION      0.07  1003.20     0  01:31       0.002        13.8       0.018
  YS02001790           JUNCTION      0.15   984.24     0  02:47     0.00437        13.8       0.010
  YS02001791           JUNCTION      0.00   983.94     0  02:47           0        13.8       0.012
  YS02001793           JUNCTION      0.00   984.43     0  01:50           0        13.8      -0.012
  WSC                  OUTFALL       0.00  1381.68     0  01:43           0        21.4       0.000
  JK-storage           STORAGE       0.00  1029.83     0  01:30           0          14      -6.982
  CC-storage           STORAGE       0.00  2182.72     0  01:41           0         6.2       1.029
  XR-storage           STORAGE    1680.85  1680.85     0  03:01        21.3        21.9      -0.003
  
  
  **********************
  Node Surcharge Summary
  **********************
  
  Surcharging occurs when water rises above the top of the highest conduit.
  ---------------------------------------------------------------------
                                               Max. Height   Min. Depth
                                   Hours       Above Crown    Below Rim
  Node                 Type      Surcharged         Meters       Meters
  ---------------------------------------------------------------------
  WS02004401           JUNCTION        1.71          0.466        1.194
  WS02004402           JUNCTION        1.73          0.418        1.322
  WS02004403           JUNCTION        1.74          0.371        1.659
  WS02004404           JUNCTION        2.04          0.397        2.383
  WS02004406           JUNCTION        1.79          0.250        2.200
  WS02004409           JUNCTION        0.13          0.044        2.316
  WS02004410           JUNCTION        0.01          0.005        2.535
  WS02004413           JUNCTION        0.88          0.048        2.152
  WS02004405           JUNCTION        1.90          0.357        2.443
  WS02006109           JUNCTION        3.17          1.096        0.724
  WS02006110           JUNCTION        2.39          0.892        0.958
  WS02006111           JUNCTION        0.64          0.475        1.395
  WS02006112           JUNCTION        2.48          0.903        0.777
  WS02006113           JUNCTION        0.72          0.655        1.275
  WS02006115           JUNCTION        1.30          0.526        1.724
  WS02006116           JUNCTION        1.36          0.478        1.812
  WS02006230           JUNCTION        2.22          1.058        0.512
  WS02006231           JUNCTION        2.44          1.034        0.496
  WS02006232           JUNCTION        3.16          1.110        0.370
  WS02006234           JUNCTION        2.90          0.956        0.284
  WS02006235           JUNCTION        3.04          0.959        0.331
  WS02006238           JUNCTION        3.06          0.963        0.467
  WS02006240           JUNCTION        2.70          0.791        0.599
  WS02006242           JUNCTION        2.74          0.820        0.000
  WS02006243           JUNCTION        2.46          0.619        0.151
  WS02006245           JUNCTION        2.11          0.532        0.318
  WS02006247           JUNCTION        2.06          0.509        0.251
  WS02006248           JUNCTION        1.77          0.380        0.000
  WS02006249           JUNCTION        1.83          0.390        0.000
  WS02006239           JUNCTION        2.84          0.860        0.430
  WS02006251           JUNCTION        1.12          0.425        0.755
  WS02006252           JUNCTION        2.10          0.577        0.523
  WS02006253           JUNCTION        1.26          1.078        1.402
  WS02006256           JUNCTION        7.00          2.050        0.000
  WS02006228           JUNCTION        3.15          1.282        0.918
  WS02006229           JUNCTION        0.01          0.029        1.041
  HS02004817           JUNCTION        0.46          0.066        1.674
  YS02001745           JUNCTION        1.04          0.232        1.118
  YS02001748           JUNCTION        6.35          0.749        0.441
  YS02001751           JUNCTION        6.36          0.724        0.476
  YS02001754           JUNCTION        6.38          0.869        0.281
  YS02001762           JUNCTION        6.40          1.077        0.073
  YS02001765           JUNCTION        6.40          1.021        0.079
  YS02001767           JUNCTION        6.39          0.977        0.053
  YS02001770           JUNCTION        6.39          0.920        0.000
  YS02001774           JUNCTION        6.40          1.002        0.048
  YS02001779           JUNCTION        6.37          0.680        0.000
  YS02001882           JUNCTION        2.54          0.747        0.083
  YS02001884           JUNCTION        2.56          0.781        0.089
  YS02001759           JUNCTION        6.41          1.119        0.091
  YS02001887           JUNCTION        2.62          0.837        0.113
  YS02001890           JUNCTION        2.64          0.760        0.000
  YS02001898           JUNCTION        2.52          0.628        0.112
  YS02001901           JUNCTION        2.59          0.743        0.127
  YS02001904           JUNCTION        2.58          0.668        0.182
  YS02001907           JUNCTION        3.12          0.950        0.000
  YS02001910           JUNCTION        2.67          0.970        0.130
  YS02001915           JUNCTION        2.54          0.915        0.085
  YS02001918           JUNCTION        2.40          0.810        0.000
  YS02001619           JUNCTION        6.37          0.610        0.000
  YS02001629           JUNCTION        6.37          0.470        0.000
  YS02001641           JUNCTION        6.40          0.962        0.138
  YS02001644           JUNCTION        6.40          0.920        0.000
  YS02001652           JUNCTION        6.38          1.000        0.130
  YS02001655           JUNCTION        6.37          0.963        0.237
  YS02001920           JUNCTION        2.42          1.100        0.040
  YS02001923           JUNCTION        0.01          0.788        0.032
  YS02001926           JUNCTION        0.01          0.900        0.000
  YS02001929           JUNCTION        0.01          0.780        0.000
  YS02001658           JUNCTION        6.35          0.903        0.397
  YS02001661           JUNCTION        1.46          0.787        0.603
  YS02001622           JUNCTION        6.37          0.620        0.000
  YS02001633           JUNCTION        6.40          0.959        0.101
  YS02001649           JUNCTION        6.40          1.050        0.000
  YS02001757           JUNCTION        6.42          1.210        0.000
  YS02001895           JUNCTION        2.53          0.636        0.114
  YS02001625           JUNCTION        6.38          0.780        0.000
  YS02163301           JUNCTION        6.39          0.902        0.128
  YS02163601           JUNCTION        6.40          1.034        0.046
  YS02164001           JUNCTION        6.40          0.965        0.135
  YS02001647           JUNCTION        6.38          0.799        0.101
  YS02006553           JUNCTION        3.17          0.974        0.216
  YS02006561           JUNCTION        2.43          0.473        0.677
  YS02006556           JUNCTION        2.84          0.900        0.450
  YS02006558           JUNCTION        2.81          0.886        0.514
  YS02001783           JUNCTION        2.63          0.860        0.740
  YS02001784           JUNCTION        2.60          0.839        0.651
  YS02001786           JUNCTION        2.52          1.103        0.327
  YS02001788           JUNCTION        2.47          1.442        0.038
  YS02001790           JUNCTION        3.43          1.157        0.000
  YS02001791           JUNCTION        3.51          0.901        1.019
  YS02001793           JUNCTION        3.74          0.935        1.665
  
  
  *********************
  Node Flooding Summary
  *********************
  
  Flooding refers to all water that overflows a node, whether it ponds or not.
  --------------------------------------------------------------------------
                                                             Total   Maximum
                                 Maximum   Time of Max       Flood    Ponded
                        Hours       Rate    Occurrence      Volume     Depth
  Node                 Flooded       LPS   days hr:min    10^6 ltr    Meters
  --------------------------------------------------------------------------
  WS02006242              0.01     70.01      0  05:23       0.000     0.000
  WS02006248              0.42    152.23      0  01:38       0.139     0.000
  WS02006249              1.23    351.69      0  01:32       0.445     0.000
  WS02006256              4.89    834.94      0  01:40      10.279     0.000
  YS02001770              1.16    262.20      0  03:01       0.512     0.000
  YS02001779              4.63    851.17      0  02:48       6.951     0.000
  YS02001890              1.74    298.87      0  01:57       1.275     0.000
  YS02001907              2.27   1197.61      0  03:01       6.358     0.000
  YS02001918              0.01     91.73      0  01:33       0.001     0.000
  YS02001619              0.01     90.75      0  01:27       0.000     0.000
  YS02001629              0.01    220.94      0  01:27       0.002     0.000
  YS02001644              6.15   1924.47      0  03:01      19.601     0.000
  YS02001926              0.01     26.44      0  01:33       0.000     0.000
  YS02001929              0.01    242.64      0  01:33       0.001     0.000
  YS02001622              0.01    104.94      0  01:27       0.000     0.000
  YS02001649              1.36    600.71      0  03:01       1.959     0.000
  YS02001757              0.50    163.77      0  03:07       0.144     0.000
  YS02001625              3.02    801.55      0  03:01       4.634     0.000
  YS02001790              0.01     81.09      0  06:38       0.000     0.000
  JK-storage              0.86    692.49      0  01:32       0.868     0.000
  XR-storage              6.01   1300.80      0  03:01      10.684     0.000
  
  
  **********************
  Storage Volume Summary
  **********************
  
  --------------------------------------------------------------------------------------------------
                         Average     Avg  Evap Exfil       Maximum     Max    Time of Max    Maximum
                          Volume    Pcnt  Pcnt  Pcnt        Volume    Pcnt     Occurrence    Outflow
  Storage Unit           1000 m3    Full  Loss  Loss       1000 m3    Full    days hr:min        LPS
  --------------------------------------------------------------------------------------------------
  JK-storage               0.186      64     0     0         0.291     100       0  01:32     983.00
  CC-storage               3.435      22     0     0         4.131      26       0  03:04     400.00
  XR-storage               0.860      93     0     0         0.926     100       0  01:49     380.00
  
  
  ***********************
  Outfall Loading Summary
  ***********************
  
  ---------------------------------------------------------------------------------------------------------------------------------
                         Flow       Avg       Max       Total         Total         Total         Total         Total         Total
                         Freq      Flow      Flow      Volume           COD            SS            TN            TP         NH4-N
  Outfall Node           Pcnt       LPS       LPS    10^6 ltr            kg            kg            kg            kg            kg
  ---------------------------------------------------------------------------------------------------------------------------------
  WSC                  100.00    789.18   1381.68      21.401      2701.691      4944.834       132.144        14.692        77.555
  ---------------------------------------------------------------------------------------------------------------------------------
  System               100.00    789.18   1381.68      21.401      2701.691      4944.834       132.144        14.692        77.555
  
  
  ********************
  Link Flow Summary
  ********************
  
  -----------------------------------------------------------------------------
                                 Maximum  Time of Max   Maximum    Max/    Max/
                                  |Flow|   Occurrence   |Veloc|    Full    Full
  Link                 Type          LPS  days hr:min     m/sec    Flow   Depth
  -----------------------------------------------------------------------------
  WS02003066WSF200     CONDUIT   1000.72     0  01:36      3.05    0.17    0.33
  WS02006287WS02006284 CONDUIT    934.55     0  01:35      2.63    0.43    0.46
  WS02006284WS02006280 CONDUIT    937.74     0  01:34      2.86    0.39    0.44
  WS02006280WS02006229 CONDUIT    968.82     0  01:34      4.53    0.21    0.75
  WS02006229WS02006228 CONDUIT    976.84     0  01:34      1.94    3.24    1.00
  WS02006256WS02006235 CONDUIT    264.10     0  00:12      3.74    2.80    1.00
  WS02006253WS02006251 CONDUIT    277.57     0  01:32      0.83    0.83    1.00
  WS02006252WS02006251 CONDUIT    404.42     0  07:42      3.22    1.48    1.00
  WS02006251WS02006249 CONDUIT    451.00     0  03:29      1.17    1.30    1.00
  WS02006249WS02006248 CONDUIT    376.46     0  05:21      1.19    2.06    1.00
  WS02006248WS02006247 CONDUIT    371.72     0  05:21      1.17    0.81    1.00
  WS02006247WS02006245 CONDUIT    367.69     0  05:21      1.15    2.92    1.00
  WS02006245WS02006243 CONDUIT    361.67     0  05:21      1.20    1.07    1.00
  WS02006243WS02006242 CONDUIT    351.93     0  06:42      1.07    0.75    1.00
  WS02006242WS02006240 CONDUIT    343.27     0  06:42      1.00    1.36    1.00
  WS02006240WS02006239 CONDUIT    334.30     0  06:42      1.08    1.05    1.00
  WS02006239WS02006238 CONDUIT    331.08     0  06:43      0.95    1.06    1.00
  WS02006238WS02006235 CONDUIT    329.82     0  06:44      1.05    0.74    1.00
  WS02006235WS02006234 CONDUIT    523.56     0  07:43      1.36    5.52    1.00
  WS02006234WS02006232 CONDUIT    523.36     0  07:43      1.36    1.06    1.00
  WS02006232WS02006231 CONDUIT    523.51     0  07:43      1.36    1.10    1.00
  WS02006231WS02006230 CONDUIT    523.03     0  07:43      1.51    7.93    1.00
  WS02006230WS02006229 CONDUIT    533.73     0  07:43      1.39   11.88    1.00
  WS02006228WS02006109 CONDUIT    976.88     0  01:34      1.94    4.27    1.00
  WS02006116WS02004401 CONDUIT   1015.82     0  01:34      1.29    1.40    1.00
  WS02006115WS02006116 CONDUIT   1015.55     0  01:34      1.29    1.30    1.00
  WS02006113WS02006111 CONDUIT    977.82     0  01:34      2.66    1.17    1.00
  WS02006112WS02006115 CONDUIT   1016.11     0  01:34      1.29    0.60    1.00
  WS02006111WS02006112 CONDUIT    978.03     0  01:34      1.95    0.47    1.00
  WS02006110WS02006113 CONDUIT    978.08     0  01:34      1.95    0.89    1.00
  WS02006109WS02006110 CONDUIT    978.33     0  01:34      1.95    1.88    1.00
  WS02004411WS02004412 CONDUIT    994.05     0  01:36      1.29    1.41    0.96
  WS02004401WS02004402 CONDUIT   1016.58     0  01:34      1.29    1.22    1.00
  WS02004413WS02003067 CONDUIT    995.25     0  01:35      1.63    0.43    0.73
  WS02004412WS02004413 CONDUIT    994.70     0  01:35      1.28    0.67    0.97
  WS02004410WS02004411 CONDUIT    993.37     0  01:36      1.27    1.36    0.99
  WS02004409WS02004410 CONDUIT   1006.89     0  01:34      1.28    1.30    1.00
  WS02004407WS02004409 CONDUIT   1017.03     0  01:34      1.85    0.36    0.71
  WS02004406WS02004407 CONDUIT   1019.59     0  01:34      1.72    0.46    0.71
  WS02004405WS02004406 CONDUIT   1019.72     0  01:34      1.30    2.01    1.00
  WS02004404WS02004405 CONDUIT   1018.68     0  01:34      1.30    9.98    1.00
  WS02004403WS02004404 CONDUIT   1018.01     0  01:34      1.30    0.74    1.00
  WS02004402WS02004403 CONDUIT   1016.98     0  01:34      1.29    1.46    1.00
  WS02004139WS02001211 CONDUIT    384.26     0  03:15      0.90    0.49    0.65
  WS02004138WS02004139 CONDUIT    394.13     0  00:00      3.62    0.08    0.47
  WS02003067WS02003066 CONDUIT    999.85     0  01:35      1.71    0.32    0.51
  WS02001213WS02003059 CONDUIT    404.30     0  03:13      0.89    0.67    0.88
  WS02001212WS02001213 CONDUIT    399.68     0  03:14      1.32    0.62    0.57
  WS02001211WS02001212 CONDUIT    395.95     0  03:14      0.78    0.30    0.72
  WS02003072WS02003073 CONDUIT   1378.92     0  01:42      1.99    2.98    0.59
  WS02003069WS02003072 CONDUIT   1379.05     0  01:43      1.84    0.66    0.63
  WS02003060WS02003069 CONDUIT   1378.58     0  01:42      2.04    0.54    0.58
  WS02003059WS02003060 CONDUIT    409.77     0  03:15      0.95    0.27    0.79
  HS02004901HS02004770 CONDUIT     47.75     0  01:32      0.11    0.18    0.61
  HS02004876HS02004881 CONDUIT    177.20     0  01:33      1.41    1.88    0.20
  HS02004870HS02004876 CONDUIT    143.30     0  01:35      0.95    0.10    0.22
  HS02004842HS02004848 CONDUIT     21.86     0  01:49      0.09    0.01    0.35
  HS02004837HS02004842 CONDUIT     22.38     0  01:49      0.42    0.01    0.37
  HS02004830HS02004837 CONDUIT     81.97     0  01:35      0.70    0.08    0.18
  HS02004824HS02004830 CONDUIT     82.88     0  01:37      0.63    0.11    0.25
  HS02004817HS02004824 CONDUIT    166.00     0  01:39      0.37    0.07    0.64
  HS02004770HS02004777 CONDUIT    244.63     0  01:32      0.57    0.45    0.62
  HS02004799HS02004480 CONDUIT    605.42     0  01:33      1.21    0.76    0.71
  HS02004792HS02004799 CONDUIT    554.25     0  01:33      1.36    0.34    0.58
  HS02004788HS02004792 CONDUIT    319.85     0  01:34      1.40    0.21    0.33
  HS02004785HS02004788 CONDUIT    244.45     0  01:33      1.02    1.84    0.34
  HS02004777HS02004785 CONDUIT    244.32     0  01:33      0.67    0.30    0.52
  HS02004480HS02004478 CONDUIT    712.97     0  01:33      1.74    3.00    0.59
  HS02004479HS02004480 CONDUIT    107.66     0  01:33      0.45    0.10    0.68
  HS02004862HS02004870 CONDUIT    109.57     0  01:36      0.90    0.12    0.17
  HS02004848HS02004852 CONDUIT     51.63     0  01:36      0.58    0.06    0.13
  HS02004856HS02004862 CONDUIT     76.86     0  01:35      0.67    0.08    0.16
  HS02004852HS02004856 CONDUIT     51.73     0  01:36      0.39    0.06    0.19
  HS02004802HS02004478 CONDUIT    227.65     0  01:38      0.57    0.20    0.58
  HS02004478WS02006287 CONDUIT    934.66     0  01:35      2.37    0.26    0.44
  HS02004817HS02004807 CONDUIT    166.69     0  01:39      0.30    0.10    0.81
  HS02004807HS02004802 CONDUIT    226.45     0  01:37      0.51    0.43    0.64
  YS02001759YS02001757 CONDUIT    899.45     0  01:42      1.15    0.64    1.00
  YS02001762YS02001759 CONDUIT    369.31     0  01:28      0.47    0.43    1.00
  YS02001765YS02001762 CONDUIT    369.13     0  01:32      0.47    0.35    1.00
  YS02001770YS02001767 CONDUIT    368.53     0  01:35      0.50    1.46    1.00
  YS02001774YS02001770 CONDUIT    851.17     0  02:48      1.08    0.54    1.00
  YS02001779YS02001774 CONDUIT    851.17     0  02:48      1.08    0.43    1.00
  YS02001649YS02001757 CONDUIT    887.42     0  01:39      1.13    0.54    1.00
  YS02001767YS02001765 CONDUIT    368.98     0  01:32      0.48    0.46    1.00
  YS02006561YS02001783 CONDUIT   1023.97     0  01:31      2.27    0.53    1.00
  YS02001783YS02001784 CONDUIT   1024.07     0  01:31      2.04    1.41    1.00
  YS02001784YS02001785 CONDUIT   1025.03     0  01:31      2.07    2.39    1.00
  YS02001788YS02001790 CONDUIT    984.08     0  02:47      2.45    0.73    1.00
  YS02001790YS02001791 CONDUIT    983.94     0  02:47      2.98    1.07    1.00
  YS02001791YS02001793 CONDUIT    984.43     0  01:50      5.83    0.42    1.00
  YS02001910YS02001907 CONDUIT    911.55     0  03:01      1.16    0.51    1.00
  YS02001786YS02001788 CONDUIT   1003.13     0  01:31      2.31    1.93    1.00
  YS02001915YS02001910 CONDUIT    911.24     0  03:01      1.16    0.45    1.00
  YS02001918YS02001915 CONDUIT    437.00     0  01:32      0.58    0.24    1.00
  YS02001923YS02001920 CONDUIT    401.11     0  01:33      0.91    0.18    1.00
  YS02001926YS02001923 CONDUIT    460.91     0  01:33      1.00    0.66    1.00
  YS02001929YS02001926 CONDUIT    352.30     0  03:01      1.07    0.17    1.00
  YS02001920YS02001918 CONDUIT    399.59     0  01:34      0.86    0.39    1.00
  YS02001629YS02163301 CONDUIT    280.28     0  01:26      0.36    0.35    1.00
  YS02001619YS02001622 CONDUIT    574.87     0  03:01      0.86    0.85    1.00
  YS02001622YS02001625 CONDUIT    575.21     0  03:01      0.73    0.31    1.00
  YS02001625YS02001629 CONDUIT    259.54     0  01:26      0.40    0.12    1.00
  YS02163301YS02001633 CONDUIT    278.59     0  01:26      0.36    0.26    1.00
  YS02163601YS02164001 CONDUIT    456.26     0  01:28      0.58    0.40    1.00
  YS02164001YS02001641 CONDUIT    458.45     0  01:28      0.58    0.63    1.00
  YS02001641YS02001644 CONDUIT    460.33     0  01:28      0.59    1.49    1.00
  YS02001647YS02001649 CONDUIT    846.70     0  03:17      1.08    0.45    1.00
  YS02006553YS02006556 CONDUIT    731.48     0  04:02      0.93    0.63    1.00
  YS02006556YS02006558 CONDUIT    732.51     0  04:02      0.93    0.58    1.00
  YSB6556YSB1171       CONDUIT     59.52     0  01:34      0.17    0.06    0.88
  YS02001907YS02006553 CONDUIT    731.59     0  04:02      0.81    0.86    1.00
  YS02006558YS02006561 CONDUIT   1058.02     0  01:32      3.77    2.34    1.00
  YS02001633YS02163601 CONDUIT    455.87     0  01:28      0.58    0.48    1.00
  YS02001644YS02001647 CONDUIT    846.70     0  03:17      1.08    0.50    1.00
  YS02001745YS02001748 CONDUIT    667.44     0  03:01      1.86    0.26    1.00
  YS02001748YS02001751 CONDUIT    667.77     0  03:01      1.39    0.34    1.00
  YS02001751YS02001754 CONDUIT    668.12     0  03:01      1.15    0.32    1.00
  YS02001754YS02001757 CONDUIT    668.65     0  03:01      0.85    0.27    1.00
  YS02001882YS02001884 CONDUIT     35.44     0  01:30      0.22    0.04    1.00
  YS02001884YS02001887 CONDUIT     58.01     0  01:29      0.16    0.08    1.00
  YS02001890YS02001895 CONDUIT    591.41     0  01:32      0.75    0.28    1.00
  YS02001895YS02001898 CONDUIT    594.82     0  01:32      0.76    1.03    1.00
  YS02001898YS02001901 CONDUIT    599.09     0  01:32      0.76    0.39    1.00
  YS02001901YS02001904 CONDUIT    600.62     0  01:32      0.76    0.93    1.00
  YS02001904YS02001907 CONDUIT    602.77     0  01:32      0.77    0.21    1.00
  YS02001887YS02001890 CONDUIT    815.88     0  01:56      1.04    1.40    1.00
  YS02001652YS02001649 CONDUIT    639.69     0  03:01      0.84    0.32    1.00
  YS02001655YS02001652 CONDUIT    639.58     0  03:01      1.25    0.31    1.00
  YS02001658YS02001655 CONDUIT    639.22     0  03:01      1.61    0.27    1.00
  YS02001661YS02001658 CONDUIT    638.97     0  03:01      1.99    0.25    1.00
  YS02001664YS02001661 CONDUIT    801.04     0  01:40      1.90    0.25    0.85
  YSB1154YSB6556       CONDUIT     59.44     0  01:33      0.17    0.11    0.84
  YSB1174YSB1171       CONDUIT     50.31     0  01:30      0.14    0.08    0.92
  YSB1171HS02004479    CONDUIT    107.71     0  01:33      0.54    0.07    0.78
  HS02004881HS02006253 CONDUIT    274.06     0  01:32      2.77    0.05    0.56
  YS02001793JiankangQianchi CONDUIT   1029.83     0  01:30     17.04    0.08    1.00
  YS02001757CaochengTiaoxuchi CONDUIT   2182.72     0  01:41      3.80    0.96    1.00
  WSF200WS02003060     CONDUIT   1004.37     0  01:36      2.04    0.22    0.46
  1                    CONDUIT   1381.68     0  01:43      3.62    0.48    0.49
  CC-Pump-1            PUMP       200.00     0  03:30              1.00
  CC-Pump-2            PUMP       200.00     0  03:30              1.00
  JK-Pump-1            PUMP       300.00     0  01:40              1.00
  JK-Pump-2            PUMP       683.00     0  01:40              1.00
  XR-Pump-1            PUMP        95.00     0  00:00              1.00
  XR-Pump-2            PUMP        95.00     0  00:00              1.00
  XR-Pump-3            PUMP        95.00     0  00:00              1.00
  XR-Pump-4            PUMP        95.00     0  00:00              1.00
  
  
  ***************************
  Flow Classification Summary
  ***************************
  
  -------------------------------------------------------------------------------------
                      Adjusted    ---------- Fraction of Time in Flow Class ---------- 
                       /Actual         Up    Down  Sub   Sup   Up    Down  Norm  Inlet 
  Conduit               Length    Dry  Dry   Dry   Crit  Crit  Crit  Crit  Ltd   Ctrl  
  -------------------------------------------------------------------------------------
  WS02003066WSF200        1.00   0.02  0.05  0.00  0.00  0.93  0.00  0.00  0.46  0.00
  WS02006287WS02006284    1.00   0.03  0.01  0.00  0.56  0.39  0.00  0.00  0.61  0.00
  WS02006284WS02006280    1.00   0.04  0.00  0.00  0.00  0.00  0.00  0.95  0.00  0.00
  WS02006280WS02006229    1.00   0.04  0.00  0.00  0.05  0.09  0.00  0.81  0.02  0.00
  WS02006229WS02006228    1.00   0.00  0.00  0.00  1.00  0.00  0.00  0.00  0.00  0.00
  WS02006256WS02006235    1.00   0.01  0.00  0.00  0.99  0.00  0.00  0.00  0.00  0.00
  WS02006253WS02006251    1.00   0.02  0.02  0.00  0.95  0.00  0.01  0.00  0.00  0.00
  WS02006252WS02006251    1.00   0.09  0.00  0.00  0.19  0.00  0.72  0.00  0.00  0.00
  WS02006251WS02006249    1.00   0.00  0.00  0.00  1.00  0.00  0.00  0.00  0.32  0.00
  WS02006249WS02006248    1.00   0.00  0.01  0.00  0.90  0.00  0.09  0.00  0.00  0.00
  WS02006248WS02006247    1.00   0.01  0.00  0.00  0.99  0.00  0.00  0.01  0.09  0.00
  WS02006247WS02006245    1.00   0.01  0.00  0.00  0.97  0.00  0.00  0.02  0.00  0.00
  WS02006245WS02006243    1.00   0.01  0.00  0.00  0.92  0.00  0.00  0.07  0.01  0.00
  WS02006243WS02006242    1.00   0.01  0.00  0.00  0.98  0.00  0.00  0.01  0.17  0.00
  WS02006242WS02006240    1.00   0.01  0.00  0.00  0.98  0.00  0.02  0.00  0.00  0.00
  WS02006240WS02006239    1.00   0.01  0.00  0.00  0.93  0.00  0.00  0.06  0.01  0.00
  WS02006239WS02006238    1.00   0.01  0.00  0.00  0.99  0.00  0.00  0.00  0.08  0.00
  WS02006238WS02006235    1.00   0.01  0.00  0.00  0.99  0.00  0.00  0.00  0.00  0.00
  WS02006235WS02006234    1.00   0.01  0.00  0.00  0.96  0.00  0.03  0.00  0.00  0.00
  WS02006234WS02006232    1.00   0.01  0.00  0.00  0.99  0.00  0.00  0.00  0.03  0.00
  WS02006232WS02006231    1.00   0.01  0.00  0.00  0.99  0.00  0.00  0.00  0.00  0.00
  WS02006231WS02006230    1.00   0.01  0.00  0.00  0.54  0.00  0.45  0.00  0.00  0.00
  WS02006230WS02006229    1.00   0.00  0.00  0.00  0.99  0.00  0.00  0.01  0.00  0.00
  WS02006228WS02006109    1.00   0.00  0.00  0.00  1.00  0.00  0.00  0.00  0.01  0.00
  WS02006116WS02004401    1.00   0.02  0.00  0.00  0.98  0.00  0.00  0.00  0.00  0.00
  WS02006115WS02006116    1.00   0.02  0.00  0.00  0.98  0.00  0.00  0.00  0.00  0.00
  WS02006113WS02006111    1.00   0.01  0.00  0.00  0.16  0.83  0.00  0.00  0.18  0.00
  WS02006112WS02006115    1.00   0.01  0.00  0.00  0.98  0.00  0.00  0.00  0.00  0.00
  WS02006111WS02006112    1.00   0.01  0.00  0.00  0.98  0.00  0.00  0.00  0.72  0.00
  WS02006110WS02006113    1.00   0.00  0.01  0.00  0.99  0.00  0.00  0.00  0.00  0.00
  WS02006109WS02006110    1.00   0.00  0.00  0.00  0.99  0.00  0.00  0.00  0.00  0.00
  WS02004411WS02004412    1.00   0.03  0.00  0.00  0.97  0.00  0.00  0.00  0.00  0.00
  WS02004401WS02004402    1.00   0.02  0.00  0.00  0.98  0.00  0.00  0.00  0.00  0.00
  WS02004413WS02003067    1.00   0.03  0.02  0.00  0.00  0.00  0.95  0.00  0.00  0.00
  WS02004412WS02004413    1.00   0.03  0.00  0.00  0.97  0.00  0.00  0.00  0.02  0.00
  WS02004410WS02004411    1.00   0.03  0.00  0.00  0.97  0.00  0.00  0.00  0.03  0.00
  WS02004409WS02004410    1.00   0.03  0.00  0.00  0.97  0.00  0.00  0.00  0.03  0.00
  WS02004407WS02004409    1.00   0.03  0.00  0.00  0.96  0.01  0.00  0.00  0.90  0.00
  WS02004406WS02004407    1.00   0.00  0.03  0.00  0.97  0.00  0.00  0.00  0.00  0.00
  WS02004405WS02004406    1.00   0.00  0.00  0.00  1.00  0.00  0.00  0.00  0.02  0.00
  WS02004404WS02004405    1.00   0.00  0.00  0.00  1.00  0.00  0.00  0.00  0.00  0.00
  WS02004403WS02004404    1.00   0.00  0.02  0.00  0.98  0.00  0.00  0.00  0.00  0.00
  WS02004402WS02004403    1.00   0.02  0.00  0.00  0.98  0.00  0.00  0.00  0.00  0.00
  WS02004139WS02001211    1.00   0.00  0.00  0.00  1.00  0.00  0.00  0.00  0.00  0.00
  WS02004138WS02004139    1.00   0.00  0.00  0.00  1.00  0.00  0.00  0.00  1.00  0.00
  WS02003067WS02003066    1.00   0.05  0.01  0.00  0.93  0.00  0.00  0.00  0.00  0.00
  WS02001213WS02003059    1.00   0.00  0.00  0.00  1.00  0.00  0.00  0.00  0.00  0.00
  WS02001212WS02001213    1.00   0.00  0.00  0.00  0.93  0.00  0.07  0.00  0.00  0.00
  WS02001211WS02001212    1.00   0.00  0.00  0.00  1.00  0.00  0.00  0.00  0.00  0.00
  WS02003072WS02003073    1.00   0.00  0.00  0.00  0.00  0.00  0.00  1.00  0.00  0.00
  WS02003069WS02003072    1.00   0.00  0.00  0.00  1.00  0.00  0.00  0.00  0.08  0.00
  WS02003060WS02003069    1.00   0.00  0.00  0.00  1.00  0.00  0.00  0.00  0.05  0.00
  WS02003059WS02003060    1.00   0.00  0.00  0.00  1.00  0.00  0.00  0.00  0.00  0.00
  HS02004901HS02004770    1.00   0.04  0.00  0.00  0.96  0.00  0.00  0.00  0.00  0.00
  HS02004876HS02004881    1.00   0.01  0.00  0.00  0.77  0.23  0.00  0.00  0.00  0.00
  HS02004870HS02004876    1.00   0.00  0.00  0.00  0.99  0.00  0.00  0.00  0.95  0.00
  HS02004842HS02004848    1.00   0.00  0.04  0.00  0.96  0.00  0.00  0.00  0.53  0.00
  HS02004837HS02004842    1.00   0.00  0.00  0.00  1.00  0.00  0.00  0.00  0.11  0.00
  HS02004830HS02004837    1.00   0.00  0.00  0.00  1.00  0.00  0.00  0.00  0.99  0.00
  HS02004824HS02004830    1.00   0.00  0.00  0.00  1.00  0.00  0.00  0.00  0.03  0.00
  HS02004817HS02004824    1.00   0.00  0.00  0.00  1.00  0.00  0.00  0.00  0.86  0.00
  HS02004770HS02004777    1.00   0.00  0.04  0.00  0.96  0.00  0.00  0.00  0.01  0.00
  HS02004799HS02004480    1.00   0.00  0.01  0.00  0.95  0.00  0.03  0.00  0.00  0.00
  HS02004792HS02004799    1.00   0.00  0.00  0.00  1.00  0.00  0.00  0.00  0.98  0.00
  HS02004788HS02004792    1.00   0.00  0.00  0.00  1.00  0.00  0.00  0.00  0.98  0.00
  HS02004785HS02004788    1.00   0.00  0.00  0.00  1.00  0.00  0.00  0.00  0.00  0.00
  HS02004777HS02004785    1.00   0.00  0.00  0.00  1.00  0.00  0.00  0.00  0.10  0.00
  HS02004480HS02004478    1.00   0.04  0.00  0.00  0.62  0.00  0.00  0.34  0.00  0.00
  HS02004479HS02004480    1.00   0.01  0.00  0.00  0.99  0.00  0.00  0.00  0.10  0.00
  HS02004862HS02004870    1.00   0.00  0.00  0.00  1.00  0.00  0.00  0.00  0.02  0.00
  HS02004848HS02004852    1.00   0.04  0.00  0.00  0.96  0.00  0.00  0.00  0.83  0.00
  HS02004856HS02004862    1.00   0.00  0.05  0.00  0.95  0.00  0.00  0.00  0.85  0.00
  HS02004852HS02004856    1.00   0.04  0.00  0.00  0.96  0.00  0.00  0.00  0.69  0.00
  HS02004802HS02004478    1.00   0.04  0.00  0.00  0.96  0.00  0.00  0.00  0.01  0.00
  HS02004478WS02006287    1.00   0.05  0.00  0.00  0.68  0.27  0.00  0.00  0.58  0.00
  HS02004817HS02004807    1.00   0.00  0.04  0.00  0.96  0.00  0.00  0.00  0.01  0.00
  HS02004807HS02004802    1.00   0.04  0.00  0.00  0.95  0.00  0.00  0.00  0.00  0.00
  YS02001759YS02001757    1.00   0.00  0.00  0.00  1.00  0.00  0.00  0.00  0.15  0.00
  YS02001762YS02001759    1.00   0.00  0.00  0.00  1.00  0.00  0.00  0.00  0.01  0.00
  YS02001765YS02001762    1.00   0.00  0.00  0.00  1.00  0.00  0.00  0.00  0.13  0.00
  YS02001770YS02001767    1.00   0.00  0.00  0.00  1.00  0.00  0.00  0.00  0.00  0.00
  YS02001774YS02001770    1.00   0.00  0.04  0.00  0.96  0.00  0.00  0.00  0.01  0.00
  YS02001779YS02001774    1.00   0.00  0.00  0.00  1.00  0.00  0.00  0.00  0.15  0.00
  YS02001649YS02001757    1.00   0.00  0.00  0.00  1.00  0.00  0.00  0.00  0.15  0.00
  YS02001767YS02001765    1.00   0.00  0.00  0.00  1.00  0.00  0.00  0.00  0.00  0.00
  YS02006561YS02001783    1.00   0.05  0.00  0.00  0.54  0.41  0.00  0.00  0.37  0.00
  YS02001783YS02001784    1.00   0.00  0.05  0.00  0.95  0.00  0.00  0.00  0.00  0.00
  YS02001784YS02001785    1.00   0.00  0.00  0.00  1.00  0.00  0.00  0.00  0.15  0.00
  YS02001788YS02001790    1.00   0.00  0.00  0.00  0.60  0.40  0.00  0.00  0.27  0.00
  YS02001790YS02001791    1.00   0.00  0.00  0.00  0.56  0.44  0.00  0.00  0.33  0.00
  YS02001791YS02001793    1.00   0.00  0.00  0.00  0.58  0.42  0.00  0.00  0.02  0.00
  YS02001910YS02001907    1.00   0.00  0.00  0.00  0.99  0.00  0.00  0.01  0.11  0.00
  YS02001786YS02001788    1.00   0.00  0.00  0.00  0.58  0.42  0.00  0.00  0.00  0.00
  YS02001915YS02001910    1.00   0.00  0.00  0.00  0.99  0.01  0.00  0.00  0.12  0.00
  YS02001918YS02001915    1.00   0.00  0.00  0.00  0.99  0.01  0.00  0.00  0.44  0.00
  YS02001923YS02001920    1.00   0.00  0.00  0.00  1.00  0.00  0.00  0.00  0.65  0.00
  YS02001926YS02001923    1.00   0.00  0.03  0.00  0.34  0.00  0.63  0.00  0.00  0.00
  YS02001929YS02001926    1.00   0.00  0.04  0.00  0.96  0.00  0.00  0.00  0.56  0.00
  YS02001920YS02001918    1.00   0.00  0.00  0.00  1.00  0.00  0.00  0.00  0.00  0.00
  YS02001629YS02163301    1.00   0.04  0.00  0.00  0.95  0.00  0.00  0.00  0.00  0.00
  YS02001619YS02001622    1.00   0.04  0.00  0.00  0.96  0.00  0.00  0.00  0.00  0.00
  YS02001622YS02001625    1.00   0.04  0.00  0.00  0.96  0.00  0.00  0.00  0.02  0.00
  YS02001625YS02001629    1.00   0.04  0.01  0.00  0.94  0.00  0.01  0.00  0.00  0.00
  YS02163301YS02001633    1.00   0.00  0.04  0.00  0.96  0.00  0.00  0.00  0.00  0.00
  YS02163601YS02164001    1.00   0.00  0.03  0.00  0.97  0.00  0.00  0.00  0.00  0.00
  YS02164001YS02001641    1.00   0.00  0.03  0.00  0.97  0.00  0.00  0.00  0.05  0.00
  YS02001641YS02001644    1.00   0.00  0.00  0.00  1.00  0.00  0.00  0.00  0.00  0.00
  YS02001647YS02001649    1.00   0.00  0.05  0.00  0.95  0.00  0.00  0.00  0.01  0.00
  YS02006553YS02006556    1.00   0.00  0.00  0.00  1.00  0.00  0.00  0.00  0.03  0.00
  YS02006556YS02006558    1.00   0.00  0.00  0.00  1.00  0.00  0.00  0.00  0.00  0.00
  YSB6556YSB1171          1.00   0.01  0.03  0.00  0.96  0.00  0.00  0.00  0.00  0.00
  YS02001907YS02006553    1.00   0.00  0.01  0.00  0.99  0.00  0.00  0.00  0.00  0.00
  YS02006558YS02006561    1.00   0.05  0.00  0.00  0.34  0.61  0.00  0.00  0.36  0.00
  YS02001633YS02163601    1.00   0.00  0.00  0.00  1.00  0.00  0.00  0.00  0.14  0.00
  YS02001644YS02001647    1.00   0.00  0.05  0.00  0.95  0.00  0.00  0.00  0.00  0.00
  YS02001745YS02001748    1.00   0.00  0.00  0.00  0.93  0.00  0.00  0.07  0.00  0.00
  YS02001748YS02001751    1.00   0.00  0.00  0.00  0.98  0.02  0.00  0.00  0.13  0.00
  YS02001751YS02001754    1.00   0.00  0.00  0.00  0.94  0.00  0.00  0.05  0.01  0.00
  YS02001754YS02001757    1.00   0.00  0.00  0.00  1.00  0.00  0.00  0.00  0.15  0.00
  YS02001882YS02001884    1.00   0.04  0.00  0.00  0.95  0.00  0.00  0.00  0.00  0.00
  YS02001884YS02001887    1.00   0.02  0.02  0.00  0.96  0.00  0.00  0.00  0.00  0.00
  YS02001890YS02001895    1.00   0.00  0.04  0.00  0.95  0.00  0.00  0.00  0.00  0.00
  YS02001895YS02001898    1.00   0.05  0.00  0.00  0.95  0.00  0.01  0.00  0.00  0.00
  YS02001898YS02001901    1.00   0.05  0.00  0.00  0.95  0.00  0.00  0.00  0.00  0.00
  YS02001901YS02001904    1.00   0.05  0.00  0.00  0.95  0.00  0.00  0.00  0.00  0.00
  YS02001904YS02001907    1.00   0.00  0.05  0.00  0.95  0.00  0.00  0.00  0.00  0.00
  YS02001887YS02001890    1.00   0.00  0.00  0.00  0.99  0.00  0.01  0.00  0.00  0.00
  YS02001652YS02001649    1.00   0.00  0.00  0.00  1.00  0.00  0.00  0.00  0.14  0.00
  YS02001655YS02001652    1.00   0.00  0.00  0.00  0.94  0.00  0.00  0.05  0.01  0.00
  YS02001658YS02001655    1.00   0.00  0.04  0.00  0.94  0.02  0.00  0.00  0.01  0.00
  YS02001661YS02001658    1.00   0.04  0.00  0.00  0.93  0.03  0.00  0.00  0.00  0.00
  YS02001664YS02001661    1.00   0.04  0.00  0.00  0.93  0.03  0.00  0.00  0.06  0.00
  YSB1154YSB6556          1.00   0.04  0.00  0.00  0.96  0.00  0.00  0.00  0.01  0.00
  YSB1174YSB1171          1.00   0.02  0.01  0.00  0.97  0.00  0.00  0.00  0.00  0.00
  YSB1171HS02004479       1.00   0.01  0.00  0.00  0.98  0.00  0.00  0.01  0.09  0.00
  HS02004881HS02006253    1.00   0.02  0.00  0.00  0.60  0.03  0.00  0.35  0.47  0.00
  YS02001793JiankangQianchi    1.00   0.00  0.00  0.00  0.76  0.24  0.00  0.00  0.27  0.00
  YS02001757CaochengTiaoxuchi    1.00   0.00  0.06  0.00  0.91  0.03  0.00  0.00  0.00  0.00
  WSF200WS02003060        1.00   0.00  0.02  0.00  0.98  0.00  0.00  0.00  0.50  0.00
  1                       1.00   0.00  0.00  0.00  0.00  1.00  0.00  0.00  0.51  0.00
  
  
  *************************
  Conduit Surcharge Summary
  *************************
  
  ----------------------------------------------------------------------------
                                                           Hours        Hours 
                         --------- Hours Full --------   Above Full   Capacity
  Conduit                Both Ends  Upstream  Dnstream   Normal Flow   Limited
  ----------------------------------------------------------------------------
  WS02006280WS02006229        0.01      0.01      0.01      0.01         0.01
  WS02006229WS02006228        3.15      3.20      3.15      3.96         3.15
  WS02006256WS02006235        6.02      6.03      7.00      5.04         0.01
  WS02006253WS02006251        1.69      1.69      1.76      0.01         0.02
  WS02006252WS02006251        1.38      1.38      2.10      0.92         0.01
[...]
  YS02001649YS02001757        6.40      6.40      6.42      0.01         0.01
  YS02001767YS02001765        6.39      6.39      6.40      0.01         0.01
  YS02006561YS02001783        2.43      2.43      2.63      0.01         0.01
  YS02001783YS02001784        2.60      2.63      2.60      2.88         2.60
  YS02001784YS02001785        2.52      2.60      2.52      3.63         2.52
  YS02001788YS02001790        2.47      2.47      3.43      0.01         0.01
  YS02001790YS02001791        3.43      3.43      3.51      2.56         2.54
  YS02001791YS02001793        3.51      3.51      3.82      0.01         0.01
  YS02001910YS02001907        2.67      2.67      3.12      0.01         0.01
  YS02001786YS02001788        2.47      2.52      2.47      3.25         2.47
  YS02001915YS02001910        2.54      2.54      2.67      0.01         0.01
  YS02001918YS02001915        2.40      2.40      2.54      0.01         0.01
  YS02001923YS02001920        2.25      2.25      2.42      0.01         0.01
  YS02001926YS02001923        0.01      0.01      0.01      0.01         0.01
  YS02001929YS02001926        0.01      0.01      0.01      0.01         0.01
  YS02001920YS02001918        2.40      2.40      2.42      0.01         0.01
  YS02001629YS02163301        6.38      6.38      6.39      0.01         0.01
  YS02001619YS02001622        6.37      6.37      6.37      0.01         0.03
  YS02001622YS02001625        6.37      6.37      6.38      0.01         0.01
  YS02001625YS02001629        6.37      6.37      6.38      0.01         0.01
  YS02163301YS02001633        6.39      6.39      6.40      0.01         0.01
  YS02163601YS02164001        6.40      6.40      6.40      0.01         0.01
  YS02164001YS02001641        6.40      6.40      6.40      0.01         0.02
  YS02001641YS02001644        6.40      6.40      6.40      3.17         3.12
  YS02001647YS02001649        6.38      6.38      6.40      0.01         0.01
  YS02006553YS02006556        2.84      2.84      3.17      0.01         0.01
  YS02006556YS02006558        2.94      2.94      3.25      0.01         0.01
  YSB6556YSB1171              0.01      0.01      0.58      0.01         0.01
  YS02001907YS02006553        3.65      3.65      3.85      0.01         0.01
  YS02006558YS02006561        2.49      2.81      2.49      3.51         2.49
  YS02001633YS02163601        6.40      6.40      6.40      0.01         0.01
  YS02001644YS02001647        6.38      6.38      6.40      0.01         0.01
  YS02001745YS02001748        1.04      1.04      6.35      0.01         0.01
  YS02001748YS02001751        6.35      6.35      6.36      0.01         0.01
  YS02001751YS02001754        6.36      6.36      6.38      0.01         0.01
  YS02001754YS02001757        6.38      6.38      6.42      0.01         0.01
  YS02001882YS02001884        2.54      2.54      2.56      0.01         0.01
  YS02001884YS02001887        2.60      2.60      2.62      0.01         0.01
  YS02001890YS02001895        2.53      2.53      2.69      0.01         0.01
  YS02001895YS02001898        2.52      2.52      2.53      0.01         0.01
  YS02001898YS02001901        2.53      2.53      2.59      0.01         0.01
  YS02001901YS02001904        2.58      2.58      2.59      0.01         0.01
  YS02001904YS02001907        2.58      2.58      3.21      0.01         0.01
  YS02001887YS02001890        2.64      2.64      2.66      1.66         0.01
  YS02001652YS02001649        6.38      6.38      6.40      0.01         0.01
  YS02001655YS02001652        6.37      6.37      6.38      0.01         0.01
  YS02001658YS02001655        6.35      6.35      6.37      0.01         0.01
  YS02001661YS02001658        1.44      1.44      6.35      0.01         0.01
  YS02001664YS02001661        0.01      0.01      2.57      0.01         0.01
  YSB1174YSB1171              0.01      0.01      0.32      0.01         0.01
  HS02004881HS02006253        0.01      0.01      1.26      0.01         0.01
  YS02001793JiankangQianchi        3.74      3.74      5.07      0.01         0.01
  YS02001757CaochengTiaoxuchi        5.98      5.98      6.42      0.01         0.01
  
  
  ***************
  Pumping Summary
  ***************
  
  ---------------------------------------------------------------------------------------------------------
                                                  Min       Avg       Max     Total     Power    % Time Off
                        Percent   Number of      Flow      Flow      Flow    Volume     Usage    Pump Curve
  Pump                 Utilized   Start-Ups       LPS       LPS       LPS  10^6 ltr     Kw-hr    Low   High
  ---------------------------------------------------------------------------------------------------------
  CC-Pump-1               40.41           7      0.00    126.05    200.00     1.380      1.30    0.0    0.0
  CC-Pump-2               23.40           5      0.00    111.15    200.00     0.780      0.88    0.0    0.0
  JK-Pump-1               68.09           4      0.00    251.63    300.00     4.637     56.78    0.0    0.0
  JK-Pump-2               68.09           4      0.00    522.81    683.00     9.510    105.08    0.0   97.6
  XR-Pump-1              100.00           1      0.00     95.00     95.00     2.679     21.06    0.0    0.0
  XR-Pump-2              100.00           1      0.00     94.43     95.00     2.622     19.80    0.0    0.0
  XR-Pump-3               95.74           2      0.00     94.23     95.00     2.508     17.29    0.0    0.0
  XR-Pump-4               95.74           2      0.00     94.23     95.00     2.508     17.29    0.0    0.0
  
  
  ***************************
  Link Pollutant Load Summary
  ***************************
  
  ------------------------------------------------------------------------------------------
                                 COD            SS            TN            TP         NH4-N
  Link                            kg            kg            kg            kg            kg
  ------------------------------------------------------------------------------------------
  WS02003066WSF200          1260.976      2468.286        29.877         2.479        15.282
  WS02006287WS02006284       662.646      1308.475        17.244         1.527         9.013
  WS02006284WS02006280       663.095      1309.173        17.291         1.533         9.042
  WS02006280WS02006229       663.168      1309.413        17.289         1.533         9.041
  WS02006229WS02006228      1238.462      2425.371        28.955         2.375        14.752
  WS02006256WS02006235       304.054       582.743         6.384         0.473         3.163
  WS02006253WS02006251       129.676       263.038         2.702         0.194         1.314
  WS02006252WS02006251       259.884       512.205         4.872         0.337         2.344
  WS02006251WS02006249       377.685       752.342         7.355         0.517         3.554
  WS02006249WS02006248       312.874       618.455         6.109         0.429         2.953
  WS02006248WS02006247       317.595       627.436         6.227         0.440         3.016
  WS02006247WS02006245       315.543       622.674         6.196         0.438         3.003
  WS02006245WS02006243       313.471       617.920         6.166         0.437         2.990
  WS02006243WS02006242       312.310       614.711         6.158         0.437         2.989
  WS02006242WS02006240       310.019       609.260         6.125         0.436         2.975
  WS02006240WS02006239       308.957       606.514         6.111         0.435         2.969
  WS02006239WS02006238       309.217       606.593         6.121         0.436         2.976
  WS02006238WS02006235       309.392       606.733         6.120         0.436         2.975
  WS02006235WS02006234       584.174      1133.548        11.874         0.860         5.819
  WS02006234WS02006232       586.821      1138.827        11.948         0.867         5.858
  WS02006232WS02006231       589.480      1144.229        12.019         0.874         5.896
  WS02006231WS02006230       592.219      1149.924        12.090         0.880         5.934
  WS02006230WS02006229       596.829      1159.421        12.193         0.889         5.987
  WS02006228WS02006109      1237.648      2423.833        28.936         2.373        14.742
  WS02006116WS02004401      1266.674      2478.588        30.074         2.499        15.392
  WS02006115WS02006116      1268.064      2481.242        30.110         2.502        15.411
  WS02006113WS02006111      1243.592      2432.931        29.669         2.468        15.206
  WS02006112WS02006115      1269.770      2484.491        30.162         2.507        15.440
  WS02006111WS02006112      1242.673      2430.990        29.645         2.465        15.194
  WS02006110WS02006113      1244.249      2434.017        29.694         2.470        15.221
  WS02006109WS02006110      1245.510      2436.202        29.747         2.476        15.251
  WS02004411WS02004412      1262.196      2470.356        29.962         2.490        15.334
  WS02004401WS02004402      1265.352      2476.110        30.032         2.495        15.369
  WS02004413WS02003067      1261.180      2468.647        29.889         2.481        15.289
  WS02004412WS02004413      1261.854      2469.804        29.934         2.486        15.317
  WS02004410WS02004411      1262.464      2470.785        29.982         2.492        15.347
  WS02004409WS02004410      1262.844      2471.425        30.007         2.495        15.362
  WS02004407WS02004409      1263.075      2471.782        30.023         2.497        15.371
  WS02004406WS02004407      1262.951      2471.470        30.021         2.496        15.370
  WS02004405WS02004406      1263.827      2472.982        30.070         2.502        15.400
  WS02004404WS02004405      1264.106      2473.541        30.060         2.500        15.392
  WS02004403WS02004404      1263.471      2472.629        29.970         2.488        15.334
  WS02004402WS02004403      1264.341      2474.235        30.001         2.492        15.352
  WS02004139WS02001211      1295.082      2246.846        87.417        10.342        52.949
  WS02004138WS02004139      1300.467      2256.136        87.769        10.383        53.161
  WS02003067WS02003066      1261.048      2468.411        29.881         2.480        15.285
  WS02001213WS02003059      1329.819      2300.957        91.111        10.809        55.275
  WS02001212WS02001213      1337.881      2314.683        91.686        10.878        55.626
  WS02001211WS02001212      1340.043      2318.227        91.870        10.900        55.739
  WS02003072WS02003073      2693.459      4932.587       131.100        14.557        76.890
  WS02003069WS02003072      2698.334      4940.445       131.544        14.612        77.166
  WS02003060WS02003069      2700.025      4943.380       131.641        14.623        77.224
  WS02003059WS02003060      1326.943      2295.909        90.945        10.790        55.177
  HS02004901HS02004770        31.241        62.186         0.612         0.047         0.291
  HS02004876HS02004881       101.412       206.324         2.154         0.154         1.046
  HS02004870HS02004876        77.886       158.590         1.699         0.122         0.826
  HS02004842HS02004848        14.996        29.643         0.314         0.022         0.147
  HS02004837HS02004842        19.708        37.152         0.788         0.082         0.444
  HS02004830HS02004837       101.807       187.056         5.288         0.600         3.141
  HS02004824HS02004830       102.662       188.505         5.364         0.610         3.188
  HS02004817HS02004824       158.468       303.820         6.498         0.682         3.738
  HS02004770HS02004777       119.650       241.820         2.495         0.175         1.169
  HS02004799HS02004480       374.828       742.454         8.578         0.702         4.270
  HS02004792HS02004799       343.090       676.953         8.002         0.666         3.998
  HS02004788HS02004792       180.019       356.947         4.687         0.402         2.399
  HS02004785HS02004788       121.032       244.027         2.637         0.193         1.259
  HS02004777HS02004785       120.352       242.950         2.575         0.185         1.220
  HS02004480HS02004478       464.820       922.689        10.234         0.827         5.070
  HS02004479HS02004480        93.773       186.476         1.955         0.161         0.985
  HS02004862HS02004870        60.202       121.267         1.340         0.100         0.653
  HS02004848HS02004852        26.761        53.672         0.548         0.038         0.256
  HS02004856HS02004862        41.867        85.056         0.850         0.058         0.403
  HS02004852HS02004856        26.785        53.715         0.548         0.038         0.257
  HS02004802HS02004478       198.963       387.628         7.079         0.709         3.985
  HS02004478WS02006287       662.730      1308.520        17.261         1.529         9.023
  HS02004817HS02004807       157.286       302.055         6.359         0.664         3.650
  HS02004807HS02004802       198.929       387.532         7.104         0.712         4.001
  YS02001759YS02001757       552.315      1072.894        10.686         0.759         5.208
  YS02001762YS02001759       367.895       707.869         7.374         0.526         3.614
  YS02001765YS02001762       369.589       712.641         7.420         0.530         3.638
  YS02001770YS02001767       378.321       733.539         7.505         0.531         3.667
  YS02001774YS02001770       852.364      1687.757        16.776         1.146         8.152
  YS02001779YS02001774       852.145      1687.485        16.844         1.156         8.199
  YS02001649YS02001757       786.685      1525.906        15.685         1.075         7.596
  YS02001767YS02001765       372.709       720.293         7.485         0.535         3.672
  YS02006561YS02001783      1600.339      3069.280        33.122         2.426        16.335
  YS02001783YS02001784      1600.241      3069.143        33.117         2.425        16.332
  YS02001784YS02001785      1607.650      3081.064        33.831         2.515        16.779
  YS02001788YS02001790      1608.276      3082.114        33.903         2.524        16.824
  YS02001790YS02001791      1609.410      3084.009        34.004         2.537        16.887
  YS02001791YS02001793      1609.204      3083.622        33.997         2.536        16.883
  YS02001910YS02001907       952.072      1849.813        20.349         1.453        10.120
  YS02001786YS02001788      1607.878      3081.468        33.859         2.518        16.797
  YS02001915YS02001910       951.488      1848.652        20.299         1.446        10.088
  YS02001918YS02001915       473.267       888.283        10.547         0.856         5.394
  YS02001923YS02001920       447.670       844.259         8.513         0.610         4.139
  YS02001926YS02001923       444.577       838.623         8.392         0.598         4.070
  YS02001929YS02001926       441.892       833.819         8.297         0.588         4.016
  YS02001920YS02001918       468.776       878.792        10.450         0.850         5.346
  YS02001629YS02163301       210.699       398.556         4.146         0.295         1.983
  YS02001619YS02001622       451.039       868.475         9.084         0.615         4.291
  YS02001622YS02001625       450.698       868.022         9.072         0.614         4.286
  YS02001625YS02001629       205.051       387.518         4.046         0.287         1.933
  YS02163301YS02001633       216.454       409.833         4.246         0.304         2.033
  YS02163601YS02164001       715.985      1349.616        13.901         1.022         6.717
  YS02164001YS02001641       716.666      1350.848        13.901         1.021         6.716
  YS02001641YS02001644       719.070      1355.195        13.936         1.023         6.731
  YS02001647YS02001649       904.350      1738.666        18.242         1.276         8.770
  YS02006553YS02006556       809.740      1515.622        17.522         1.316         8.766
  YS02006556YS02006558       810.285      1516.664        17.489         1.311         8.743
  YSB6556YSB1171              54.546       108.519         1.086         0.088         0.541
  YS02001907YS02006553       809.531      1515.200        17.566         1.323         8.797
  YS02006558YS02006561      1600.247      3069.073        33.121         2.426        16.335
  YS02001633YS02163601       716.525      1350.498        13.877         1.017         6.699
  YS02001644YS02001647       912.564      1754.582        18.369         1.285         8.829
  YS02001745YS02001748       597.877      1178.541        11.860         0.761         5.723
  YS02001748YS02001751       597.401      1177.765        11.871         0.763         5.732
  YS02001751YS02001754       596.699      1176.626        11.859         0.763         5.728
  YS02001754YS02001757       597.849      1178.452        12.028         0.786         5.836
  YS02001882YS02001884         5.823        10.603         0.107         0.008         0.052
  YS02001884YS02001887         8.550        15.723         0.157         0.012         0.077
  YS02001890YS02001895       827.042      1598.110        15.721         1.198         7.698
  YS02001895YS02001898       826.884      1597.950        15.714         1.197         7.694
  YS02001898YS02001901       826.822      1597.730        15.714         1.197         7.695
  YS02001901YS02001904       826.450      1597.232        15.721         1.199         7.700
  YS02001904YS02001907       827.170      1598.290        15.793         1.208         7.746
  YS02001887YS02001890      1075.728      2094.564        20.305         1.549         9.938
  YS02001652YS02001649       545.474      1056.195        10.876         0.794         5.137
  YS02001655YS02001652       545.911      1056.948        10.889         0.795         5.143
  YS02001658YS02001655       545.419      1056.208        10.803         0.784         5.087
  YS02001661YS02001658       545.793      1056.798        10.811         0.784         5.090
  YS02001664YS02001661       555.778      1072.313        11.064         0.801         5.207
  YSB1154YSB6556              54.070       107.774         1.039         0.082         0.511
  YSB1174YSB1171              37.704        75.534         0.747         0.059         0.369
  YSB1171HS02004479           93.613       186.166         1.961         0.162         0.989
  HS02004881HS02006253       113.891       232.255         2.393         0.170         1.162
  YS02001793JiankangQianchi      1609.546      3084.200        33.998         2.535        16.883
  YS02001757CaochengTiaoxuchi       727.364      1420.207        13.876         0.958         6.688
  WSF200WS02003060          1261.099      2468.500        29.889         2.481        15.290
  1                         2701.691      4944.834       132.144        14.692        77.555
  CC-Pump-1                  165.886       326.980         3.100         0.214         1.490
  CC-Pump-2                   93.471       184.234         1.749         0.121         0.841
  JK-Pump-1                  443.416       859.618         9.079         0.667         4.474
  JK-Pump-2                 1009.511      1957.063        20.670         1.518        10.186
  XR-Pump-1                  349.135       602.542        24.228         2.881        14.718
  XR-Pump-2                  335.503       580.730        22.920         2.718        13.900
  XR-Pump-3                  309.538       539.187        20.429         2.406        12.344
  XR-Pump-4                  309.538       539.187        20.429         2.406        12.344
  

  Analysis begun on:  Thu Jul 15 11:36:10 2021
  Analysis ended on:  Thu Jul 15 11:36:12 2021
  Total elapsed time: 00:00:02