
  EPA STORM WATER MANAGEMENT MODEL - VERSION 5.1 (Build 5.3.0.dev0)
  --------------------------------------------------------------

  WARNING 04: minimum elevation drop used for Conduit WS02004404WS02004405
  WARNING 03: negative offset ignored for Link YS02001904YS02001907
  
  *********************************************************
  NOTE: The summary statistics displayed in this report are
  based on results found at every computational time step,  
  not just on results from each reporting time step.
  *********************************************************
  
  ****************
  Analysis Options
  ****************
  Flow Units ............... LPS
  Process Models:
    Rainfall/Runoff ........ YES
    RDII ................... NO
    Snowmelt ............... NO
    Groundwater ............ NO
    Flow Routing ........... YES
    Ponding Allowed ........ NO
    Water Quality .......... YES
  Infiltration Method ...... HORTON
  Flow Routing Method ...... DYNWAVE
  Surcharge Method ......... EXTRAN
  Starting Date ............ 08/28/2015 08:00:00
  Ending Date .............. 08/28/2015 15:50:00
  Antecedent Dry Days ...... 8.0
  Report Time Step ......... 00:01:00
  Wet Time Step ............ 00:01:00
  Dry Time Step ............ 00:01:00
  Routing Time Step ........ 5.00 sec
  Variable Time Step ....... YES
  Maximum Trials ........... 8
  Number of Threads ........ 4
  Head Tolerance ........... 0.001500 m
  
  
  **************************        Volume         Depth
  Runoff Quantity Continuity     hectare-m            mm
  **************************     ---------       -------
  Total Precipitation ......         1.721         3.769
  Evaporation Loss .........         0.000         0.000
  Infiltration Loss ........         0.413         0.904
  Surface Runoff ...........         0.906         1.983
  Final Storage ............         0.403         0.883
  Continuity Error (%) .....        -0.023
  
  
  **************************           COD            SS            TN            TP         NH4-N
  Runoff Quality Continuity             kg            kg            kg            kg            kg
  **************************    ----------    ----------    ----------    ----------    ----------
  Initial Buildup ..........     41378.656     70582.865      1804.177       168.684      1032.807
  Surface Buildup ..........        13.421        14.320         3.232         0.300         1.918
  Wet Deposition ...........         0.000         0.000         0.000         0.000         0.000
  Sweeping Removal .........         0.000         0.000         0.000         0.000         0.000
  Infiltration Loss ........        14.539        24.152         0.304         0.020         0.141
  BMP Removal ..............         0.000         0.000         0.000         0.000         0.000
  Surface Runoff ...........       427.449       691.615         9.024         0.569         4.235
  Remaining Buildup ........     40949.957     69881.208      1798.077       168.394      1030.347
  Continuity Error (%) .....         0.000         0.000         0.000         0.000         0.000
  
  
  **************************        Volume        Volume
  Flow Routing Continuity        hectare-m      10^6 ltr
  **************************     ---------     ---------
  Dry Weather Inflow .......         0.616         6.165
  Wet Weather Inflow .......         0.905         9.051
  Groundwater Inflow .......         0.000         0.000
  RDII Inflow ..............         0.000         0.000
  External Inflow ..........         0.102         1.024
  External Outflow .........         1.119        11.189
  Flooding Loss ............         0.137         1.367
  Evaporation Loss .........         0.000         0.000
  Exfiltration Loss ........         0.000         0.000
  Initial Stored Volume ....         0.076         0.761
  Final Stored Volume ......         0.515         5.147
  Continuity Error (%) .....        -4.139
  
  
  **************************           COD            SS            TN            TP         NH4-N
  Quality Routing Continuity            kg            kg            kg            kg            kg
  **************************    ----------    ----------    ----------    ----------    ----------
  Dry Weather Inflow .......      1541.201      2465.922       147.955        18.494        92.472
  Wet Weather Inflow .......       427.290       691.381         9.020         0.569         4.234
  Groundwater Inflow .......         0.000         0.000         0.000         0.000         0.000
  RDII Inflow ..............         0.000         0.000         0.000         0.000         0.000
  External Inflow ..........       183.418       293.469        17.608         2.201        11.005
  External Outflow .........      1669.820      2683.473       150.252        18.610        93.450
  Flooding Loss ............        65.374       105.840         2.302         0.222         1.282
  Exfiltration Loss ........         0.000         0.000         0.000         0.000         0.000
  Mass Reacted .............         0.000         0.000         0.000         0.000         0.000
  Initial Stored Mass ......         0.000         0.000         0.000         0.000         0.000
  Final Stored Mass ........       335.149       530.870        17.077         1.863        10.005
  Continuity Error (%) .....         3.790         3.784         2.837         2.675         2.762
  
  
  *************************
  Highest Continuity Errors
  *************************
  Node HS02004842 (31.52%)
  Node YS02001774 (29.57%)
  Node YS02001884 (26.76%)
  Node JK-storage (-22.56%)
  Node YSB1171 (8.36%)
  
  
  ***************************
  Time-Step Critical Elements
  ***************************
  Link WS02006252WS02006251 (46.21%)
  Link WS02006280WS02006229 (18.24%)
  Link YS02001793JiankangQianchi (11.06%)
  Link WS02006238WS02006235 (8.12%)
  Link YS02001791YS02001793 (3.21%)
  
  
  ********************************
  Highest Flow Instability Indexes
  ********************************
  Link WS02006113WS02006111 (52)
  Link YS02164001YS02001641 (11)
  Link YS02001641YS02001644 (10)
  Link YS02001765YS02001762 (10)
  Link YS02163601YS02164001 (10)
  
  
  *************************
  Routing Time Step Summary
  *************************
  Minimum Time Step           :     0.12 sec
  Average Time Step           :     2.08 sec
  Maximum Time Step           :     5.00 sec
  Percent in Steady State     :    -0.00
  Average Iterations per Step :     2.61
  Percent Not Converging      :     3.31
  
  
  ***************************
  Subcatchment Runoff Summary
  ***************************
  
  ------------------------------------------------------------------------------------------------------------------------------
                            Total      Total      Total      Total     Imperv       Perv      Total       Total     Peak  Runoff
                           Precip      Runon       Evap      Infil     Runoff     Runoff     Runoff      Runoff   Runoff   Coeff
  Subcatchment                 mm         mm         mm         mm         mm         mm         mm    10^6 ltr      LPS
  ------------------------------------------------------------------------------------------------------------------------------
  sub0                       3.77       0.00       0.00       0.26       3.46       0.00       3.46        0.00     1.02   0.918
  sub1                       3.77       0.00       0.00       0.41       3.27       0.00       3.27        0.02     5.61   0.867
  sub2                       3.77       0.00       0.00       1.39       2.30       0.00       2.30        0.02     4.97   0.609
  sub3                       3.77       0.00       0.00       1.39       2.26       0.00       2.26        0.05    10.22   0.601
  sub4                       3.77       0.00       0.00       0.41       3.14       0.00       3.14        0.07    11.42   0.832
  sub5                       3.77       0.00       0.00       0.26       3.41       0.00       3.41        0.04     9.97   0.906
  sub7                       3.77       0.00       0.00       0.34       3.37       0.00       3.37        0.01     3.47   0.894
  sub8                       3.77       0.00       0.00       0.34       3.36       0.00       3.36        0.02     6.17   0.892
  sub9                       3.77       0.00       0.00       0.34       3.36       0.00       3.36        0.02     4.58   0.891
  sub10                      3.77       0.00       0.00       0.30       3.38       0.00       3.38        0.04     9.94   0.898
  sub11                      3.77       0.00       0.00       0.30       3.40       0.00       3.40        0.04    11.58   0.902
  sub12                      3.77       0.00       0.00       0.49       3.23       0.00       3.23        0.03     9.58   0.858
  sub14                      3.77       0.00       0.00       0.34       3.36       0.00       3.36        0.03     8.95   0.891
  sub15                      3.77       0.00       0.00       1.13       2.58       0.00       2.58        0.04    12.16   0.684
  sub16                      3.77       0.00       0.00       1.24       2.49       0.00       2.49        0.03     8.49   0.660
  sub17                      3.77       0.00       0.00       1.21       2.52       0.00       2.52        0.02     6.89   0.669
  sub22                      3.77       0.00       0.00       1.62       2.11       0.00       2.11        0.13    39.55   0.559
  sub23                      3.77       0.00       0.00       1.39       2.33       0.00       2.33        0.11    33.62   0.619
  sub60                      3.77       0.00       0.00       0.45       2.16       0.00       2.16        0.65    56.17   0.573
  sub61                      3.77       0.00       0.00       0.64       2.34       0.00       2.34        0.72    70.98   0.622
  sub62                      3.77       0.00       0.00       0.30       2.50       0.00       2.50        0.77    72.37   0.664
  sub63                      3.77       0.00       0.00       1.09       2.10       0.00       2.10        0.63    66.48   0.557
  sub64                      3.77       0.00       0.00       0.57       2.06       0.00       2.06        0.63    53.31   0.547
  sub65                      3.77       0.00       0.00       0.49       2.09       0.00       2.09        0.64    54.06   0.553
  sub66                      3.77       0.00       0.00       1.09       1.81       0.00       1.81        0.55    48.98   0.480
  sub67                      3.77       0.00       0.00       0.30       2.79       0.00       2.79        0.86    93.64   0.739
  sub68                      3.77       0.00       0.00       0.53       2.50       0.00       2.50        0.77    78.65   0.664
  sub69                      3.77       0.00       0.00       0.57       2.73       0.00       2.73        0.64    78.88   0.725
  sub70                      3.77       2.79       0.00       2.23       3.27       0.00       3.27        0.75    62.08   0.499
  sub71                      3.77       0.00       0.00       0.30       2.38       0.00       2.38        0.56    50.38   0.632
  sub72                      3.77       0.00       0.00       0.26       1.63       0.00       1.63        0.33    23.40   0.432
  1                          3.77       3.18       0.00       1.30       3.26       0.31       3.58        0.84    57.07   0.515
  2                          3.77       0.00       0.00       2.74       0.83       0.09       0.91        0.37    47.50   0.242
  
  
  ****************************
  Subcatchment Washoff Summary
  ****************************
  
  ------------------------------------------------------------------------------------------
                                 COD            SS            TN            TP         NH4-N
  Subcatchment                    kg            kg            kg            kg            kg
  ------------------------------------------------------------------------------------------
  sub0                         0.458         0.819         0.007         0.001         0.004
  sub1                         1.838         3.314         0.035         0.002         0.017
  sub2                         1.049         1.818         0.025         0.002         0.011
  sub3                         2.496         4.254         0.058         0.004         0.026
  sub4                         3.967         7.050         0.085         0.005         0.040
  sub5                         4.184         7.444         0.074         0.005         0.036
  sub7                         0.997         1.842         0.019         0.001         0.009
  sub8                         1.519         2.857         0.032         0.002         0.015
  sub9                         1.273         2.361         0.026         0.002         0.012
  sub10                        3.517         6.350         0.065         0.004         0.031
  sub11                        3.550         6.519         0.068         0.004         0.032
  sub12                        2.973         5.383         0.054         0.004         0.026
  sub14                        2.682         4.926         0.052         0.003         0.025
  sub15                        3.088         5.395         0.063         0.004         0.029
  sub16                        1.990         3.492         0.039         0.003         0.018
  sub17                        1.806         3.136         0.034         0.003         0.016
  sub22                        9.096        15.566         0.183         0.013         0.083
  sub23                        5.752        10.243         0.134         0.008         0.060
  sub60                       27.351        43.778         0.611         0.034         0.291
  sub61                       35.175        56.166         0.708         0.045         0.339
  sub62                       37.297        60.676         0.804         0.046         0.384
  sub63                       26.760        42.330         0.610         0.040         0.275
  sub64                       31.613        48.656         0.629         0.043         0.296
  sub65                       32.426        50.126         0.651         0.043         0.308
  sub66                       19.713        30.778         0.467         0.028         0.214
  sub67                       56.204        90.814         1.047         0.072         0.503
  sub68                       40.075        64.858         0.839         0.052         0.396
  sub69                       38.418        63.295         0.772         0.050         0.365
  sub70                       55.193        90.806         1.221         0.079         0.558
  sub71                       24.747        40.567         0.575         0.030         0.274
  sub72                       14.642        22.064         0.301         0.019         0.144
  1                           24.815        41.152         0.575         0.037         0.258
  2                            4.395         6.884         0.155         0.009         0.064
  ------------------------------------------------------------------------------------------
  System                     521.060       845.716        11.016         0.699         5.158
  
  
  ******************
  Node Depth Summary
  ******************
  
  ---------------------------------------------------------------------------------
                                 Average  Maximum  Maximum  Time of Max    Reported
                                   Depth    Depth      HGL   Occurrence   Max Depth
  Node                 Type       Meters   Meters   Meters  days hr:min      Meters
  ---------------------------------------------------------------------------------
  WS02001211           JUNCTION     0.65     0.78     5.62     0  07:50        0.78
  WS02001212           JUNCTION     0.37     0.49     5.55     0  07:50        0.49
  WS02001213           JUNCTION     0.59     0.73     5.49     0  07:50        0.73
  WS02003069           JUNCTION     0.37     0.53     5.12     0  07:50        0.53
  WS02003072           JUNCTION     0.44     0.59     4.96     0  07:50        0.59
  WS02003073           JUNCTION     0.26     0.36     4.42     0  07:50        0.36
  WS02003060           JUNCTION     0.33     0.47     5.40     0  07:49        0.47
  WS02003066           JUNCTION     0.16     0.27     5.82     0  07:48        0.27
  WS02003059           JUNCTION     0.65     0.78     5.46     0  07:50        0.78
  WS02003067           JUNCTION     0.43     0.65     5.97     0  07:48        0.65
  WS02004401           JUNCTION     0.51     0.76     6.76     0  07:45        0.76
  WS02004402           JUNCTION     0.55     0.79     6.75     0  07:46        0.79
  WS02004403           JUNCTION     0.57     0.81     6.74     0  07:46        0.81
  WS02004404           JUNCTION     0.65     0.89     6.74     0  07:46        0.88
  WS02004406           JUNCTION     0.66     0.89     6.72     0  07:46        0.89
  WS02004409           JUNCTION     0.32     0.57     6.34     0  07:47        0.57
  WS02004410           JUNCTION     0.34     0.59     6.31     0  07:47        0.59
  WS02004411           JUNCTION     0.36     0.60     6.28     0  07:48        0.60
  WS02004412           JUNCTION     0.38     0.62     6.26     0  07:48        0.62
  WS02004413           JUNCTION     0.53     0.78     6.25     0  07:48        0.78
  WS02004405           JUNCTION     0.65     0.88     6.73     0  07:46        0.88
  WS02006109           JUNCTION     0.58     0.85     7.47     0  07:44        0.85
  WS02006110           JUNCTION     0.60     0.84     7.42     0  07:44        0.84
  WS02006111           JUNCTION     0.15     0.26     6.96     0  07:44        0.26
  WS02006112           JUNCTION     0.67     0.94     6.82     0  07:45        0.94
  WS02006113           JUNCTION     0.23     0.40     7.29     0  07:44        0.40
  WS02006115           JUNCTION     0.40     0.65     6.79     0  07:45        0.65
  WS02006116           JUNCTION     0.48     0.73     6.77     0  07:45        0.73
  WS02006230           JUNCTION     0.50     0.89     7.63     0  07:44        0.89
  WS02006231           JUNCTION     0.30     0.62     7.74     0  07:43        0.61
  WS02006232           JUNCTION     0.42     0.77     7.81     0  07:43        0.77
  WS02006234           JUNCTION     0.32     0.73     7.89     0  07:43        0.73
  WS02006235           JUNCTION     0.35     0.78     7.95     0  07:43        0.78
  WS02006238           JUNCTION     0.37     0.81     7.95     0  07:43        0.80
  WS02006240           JUNCTION     0.28     0.69     7.98     0  07:43        0.68
  WS02006242           JUNCTION     0.32     0.73     8.00     0  07:43        0.73
  WS02006243           JUNCTION     0.22     0.60     8.02     0  07:44        0.60
  WS02006245           JUNCTION     0.21     0.55     8.03     0  07:44        0.55
  WS02006247           JUNCTION     0.22     0.57     8.07     0  07:01        0.56
  WS02006248           JUNCTION     0.18     0.52     8.11     0  07:01        0.52
  WS02006249           JUNCTION     0.21     0.57     8.17     0  07:01        0.57
  WS02006239           JUNCTION     0.32     0.76     7.97     0  07:43        0.75
  WS02006251           JUNCTION     0.19     0.58     8.25     0  07:00        0.58
  WS02006252           JUNCTION     0.15     0.58     8.83     0  07:00        0.58
  WS02006253           JUNCTION     0.22     0.61     8.25     0  07:00        0.60
  WS02006256           JUNCTION     1.08     2.35     9.28     0  00:00        2.35
  WS02004138           JUNCTION     0.15     0.20     7.45     0  00:00        0.19
  WS02004139           JUNCTION     0.60     0.72     5.63     0  07:50        0.72
  WS02004407           JUNCTION     0.15     0.26     6.57     0  07:46        0.26
  WS02006228           JUNCTION     0.56     0.87     7.52     0  07:44        0.87
  WS02006229           JUNCTION     0.53     0.85     7.54     0  07:44        0.85
  WS02006280           JUNCTION     0.05     0.13     8.40     0  02:16        0.13
  WS02006284           JUNCTION     0.33     0.46     8.85     0  02:16        0.46
  WS02006287           JUNCTION     0.07     0.18     9.14     0  02:16        0.18
  WSF200               JUNCTION     0.14     0.25     5.48     0  07:48        0.25
  HS02004901           JUNCTION     0.10     0.21    10.03     0  02:14        0.21
  HS02004881           JUNCTION     0.00     0.02     9.05     0  02:15        0.02
  HS02004876           JUNCTION     0.03     0.09     9.12     0  02:15        0.09
  HS02004870           JUNCTION     0.01     0.03     9.32     0  02:16        0.03
  HS02004862           JUNCTION     0.01     0.04     9.42     0  02:17        0.04
  HS02004856           JUNCTION     0.07     0.10     9.52     0  02:16        0.10
  HS02004852           JUNCTION     0.00     0.02     9.53     0  02:17        0.02
  HS02004848           JUNCTION     0.00     0.02     9.62     0  02:15        0.02
  HS02004842           JUNCTION     0.33     0.35     9.62     0  02:15        0.35
  HS02004837           JUNCTION     0.02     0.04     9.62     0  02:15        0.04
  HS02004830           JUNCTION     0.03     0.06     9.52     0  02:15        0.06
  HS02004824           JUNCTION     0.02     0.03     9.44     0  02:18        0.03
  HS02004817           JUNCTION     0.41     0.50     9.35     0  02:16        0.50
  HS02004807           JUNCTION     0.10     0.18     9.35     0  02:16        0.18
  HS02004802           JUNCTION     0.14     0.22     9.35     0  02:16        0.22
  HS02004799           JUNCTION     0.09     0.22     9.44     0  02:14        0.22
  HS02004792           JUNCTION     0.02     0.08     9.60     0  02:13        0.08
  HS02004788           JUNCTION     0.01     0.06     9.96     0  02:15        0.06
  HS02004785           JUNCTION     0.03     0.12    10.02     0  02:14        0.12
  HS02004777           JUNCTION     0.12     0.23    10.03     0  02:14        0.23
  HS02004770           JUNCTION     0.09     0.20    10.03     0  02:14        0.20
  HS02004480           JUNCTION     0.05     0.17     9.41     0  02:14        0.17
  HS02004479           JUNCTION     0.09     0.21     9.41     0  02:15        0.21
  HS02004478           JUNCTION     0.04     0.11     9.34     0  02:16        0.11
  YS02001745           JUNCTION     0.39     0.65     8.17     0  06:49        0.65
  YS02001748           JUNCTION     0.72     1.09     8.17     0  06:50        1.09
  YS02001751           JUNCTION     0.88     1.29     8.17     0  06:50        1.28
  YS02001754           JUNCTION     1.12     1.56     8.17     0  06:50        1.56
  YS02001762           JUNCTION     1.31     1.79     8.19     0  06:51        1.77
  YS02001765           JUNCTION     1.26     1.74     8.19     0  06:51        1.73
  YS02001767           JUNCTION     1.23     1.71     8.20     0  06:51        1.69
  YS02001770           JUNCTION     1.22     1.71     8.21     0  06:51        1.68
  YS02001774           JUNCTION     1.29     1.79     8.21     0  06:51        1.76
  YS02001779           JUNCTION     1.05     1.52     8.21     0  06:51        1.49
  YS02001882           JUNCTION     0.22     0.39     7.11     0  02:52        0.39
  YS02001884           JUNCTION     0.31     0.49     7.11     0  02:52        0.49
  YS02001759           JUNCTION     1.34     1.82     8.18     0  06:51        1.81
  YS02001887           JUNCTION     0.39     0.57     7.11     0  02:51        0.57
  YS02001890           JUNCTION     0.42     0.60     7.10     0  02:52        0.60
  YS02001898           JUNCTION     0.20     0.35     7.09     0  02:54        0.35
  YS02001901           JUNCTION     0.31     0.48     7.09     0  02:54        0.48
  YS02001904           JUNCTION     0.29     0.46     7.09     0  02:54        0.46
  YS02001907           JUNCTION     0.61     0.80     7.09     0  02:54        0.80
  YS02001910           JUNCTION     0.40     0.58     7.09     0  02:53        0.58
  YS02001915           JUNCTION     0.21     0.37     7.09     0  02:53        0.37
  YS02001918           JUNCTION     0.06     0.08     7.15     0  03:03        0.08
  YS02001619           JUNCTION     0.85     1.25     8.18     0  06:50        1.24
  YS02001629           JUNCTION     1.17     1.63     8.17     0  06:50        1.62
  YS02001641           JUNCTION     1.27     1.73     8.17     0  06:50        1.73
  YS02001644           JUNCTION     1.28     1.75     8.18     0  06:51        1.73
  YS02001652           JUNCTION     1.13     1.58     8.17     0  06:50        1.57
  YS02001655           JUNCTION     0.91     1.32     8.17     0  06:50        1.31
  YS02001920           JUNCTION     0.15     0.19     7.19     0  03:03        0.19
  YS02001923           JUNCTION     0.05     0.07     7.33     0  03:02        0.07
  YS02001926           JUNCTION     0.12     0.16     7.60     0  03:02        0.16
  YS02001929           JUNCTION     0.05     0.07     7.77     0  03:01        0.07
  YS02001658           JUNCTION     0.66     1.03     8.17     0  06:50        1.02
  YS02001661           JUNCTION     0.48     0.76     8.16     0  06:50        0.76
  YS02001664           JUNCTION     0.13     0.24     8.16     0  06:50        0.24
  YS02001622           JUNCTION     0.86     1.28     8.19     0  06:50        1.26
  YS02001633           JUNCTION     1.26     1.72     8.17     0  06:51        1.71
  YS02001649           JUNCTION     1.31     1.78     8.17     0  06:50        1.77
  YS02001757           JUNCTION     1.44     1.91     8.17     0  06:50        1.91
  YS02001895           JUNCTION     0.19     0.35     7.10     0  02:53        0.35
  YS02001625           JUNCTION     1.13     1.57     8.18     0  06:50        1.56
  YS02163301           JUNCTION     1.20     1.66     8.18     0  06:50        1.65
  YS02163601           JUNCTION     1.31     1.77     8.17     0  06:50        1.76
  YS02164001           JUNCTION     1.25     1.71     8.17     0  06:50        1.71
  YS02001647           JUNCTION     1.12     1.56     8.17     0  06:50        1.56
  YSB1154              JUNCTION     0.22     0.36     9.41     0  02:14        0.36
  YSB6556              JUNCTION     0.12     0.24     9.41     0  02:15        0.24
  YSB1174              JUNCTION     0.18     0.30     9.41     0  02:14        0.30
  YSB1171              JUNCTION     0.37     0.51     9.41     0  02:15        0.51
  YS02006553           JUNCTION     0.62     0.80     7.09     0  02:54        0.80
  YS02006561           JUNCTION     0.11     0.19     6.85     0  02:54        0.19
  YS02006556           JUNCTION     0.59     0.77     7.08     0  02:54        0.77
  YS02006558           JUNCTION     0.63     0.82     7.08     0  02:54        0.82
  YS02001783           JUNCTION     0.18     0.50     6.64     0  05:21        0.49
  YS02001784           JUNCTION     0.22     0.57     6.63     0  05:21        0.55
  YS02001786           JUNCTION     0.19     0.59     6.62     0  05:21        0.59
  YS02001788           JUNCTION     0.13     0.64     6.61     0  05:21        0.64
  YS02001790           JUNCTION     0.17     0.97     6.61     0  05:20        0.96
  YS02001791           JUNCTION     0.14     1.14     6.61     0  05:20        1.13
  YS02001793           JUNCTION     0.16     1.77     6.61     0  05:20        1.76
  WSC                  OUTFALL      0.26     0.36     1.03     0  07:50        0.36
  JK-storage           STORAGE      1.69     5.80     6.60     0  05:20        5.79
  CC-storage           STORAGE      0.76     1.16     8.16     0  06:52        1.16
  XR-storage           STORAGE      2.07     5.00     3.00     0  06:56        5.00
  
  
  *******************
  Node Inflow Summary
  *******************
  
  -------------------------------------------------------------------------------------------------
                                  Maximum  Maximum                  Lateral       Total        Flow
                                  Lateral    Total  Time of Max      Inflow      Inflow     Balance
                                   Inflow   Inflow   Occurrence      Volume      Volume       Error
  Node                 Type           LPS      LPS  days hr:min    10^6 ltr    10^6 ltr     Percent
  -------------------------------------------------------------------------------------------------
  WS02001211           JUNCTION      7.35   388.67     0  03:23       0.207        7.57       0.540
  WS02001212           JUNCTION      0.00   389.87     0  03:22           0        7.53       0.419
  WS02001213           JUNCTION      0.00   391.11     0  03:22           0         7.5       0.313
  WS02003069           JUNCTION      0.32   804.80     0  07:49     0.00902        11.3       0.332
  WS02003072           JUNCTION      0.00   802.76     0  07:50           0        11.2       0.395
  WS02003073           JUNCTION      1.82   799.97     0  07:50      0.0514        11.2       0.455
  WS02003060           JUNCTION     16.53   804.63     0  07:49       0.466        11.3       0.314
  WS02003066           JUNCTION      0.00   409.42     0  07:48           0         3.4       0.152
  WS02003059           JUNCTION      0.00   393.23     0  03:22           0        7.48       0.546
  WS02003067           JUNCTION      0.00   409.24     0  07:48           0        3.41       0.304
  WS02004401           JUNCTION      0.00   424.58     0  07:45           0        3.67       0.640
  WS02004402           JUNCTION      0.00   423.23     0  07:45           0        3.65       0.601
  WS02004403           JUNCTION      0.00   422.22     0  07:46           0        3.63       0.544
  WS02004404           JUNCTION      0.16   421.67     0  07:46     0.00457        3.61       0.404
  WS02004406           JUNCTION      0.00   421.04     0  07:46           0        3.57       0.993
  WS02004409           JUNCTION      0.00   420.13     0  07:46           0        3.53       0.546
  WS02004410           JUNCTION      0.00   417.24     0  07:47           0        3.51       0.616
  WS02004411           JUNCTION      0.00   414.56     0  07:47           0        3.49       0.628
  WS02004412           JUNCTION      0.00   412.44     0  07:47           0        3.47       0.672
  WS02004413           JUNCTION      0.00   410.62     0  07:48           0        3.45       0.977
  WS02004405           JUNCTION      0.04   421.33     0  07:46     0.00107         3.6       0.612
  WS02006109           JUNCTION      1.23   430.63     0  07:44      0.0347        3.77       0.433
  WS02006110           JUNCTION      0.00   430.70     0  07:44           0        3.76       0.548
  WS02006111           JUNCTION      0.00   441.49     0  07:44           0        3.73       0.131
  WS02006112           JUNCTION      6.89   431.91     0  07:44      0.0216        3.74       0.785
  WS02006113           JUNCTION      0.00   430.56     0  07:44           0        3.74       0.275
  WS02006115           JUNCTION      0.00   428.89     0  07:45           0        3.71       0.616
  WS02006116           JUNCTION      0.00   426.44     0  07:45           0        3.69       0.594
  WS02006230           JUNCTION     10.28   420.26     0  07:43        0.29           3       0.392
  WS02006231           JUNCTION      0.00   410.96     0  07:43           0        2.72       0.442
  WS02006232           JUNCTION      0.00   410.97     0  07:43           0        2.74       0.742
  WS02006234           JUNCTION      0.00   411.43     0  07:43           0        2.75       0.199
  WS02006235           JUNCTION      0.00   411.50     0  07:43           0         2.9       0.512
  WS02006238           JUNCTION      0.00   321.60     0  07:02           0        1.05       0.352
  WS02006240           JUNCTION      0.00   339.53     0  07:02           0       0.946       1.381
  WS02006242           JUNCTION      0.00   346.44     0  07:01           0       0.908       1.847
  WS02006243           JUNCTION      0.00   356.48     0  07:01           0       0.876       0.826
  WS02006245           JUNCTION      0.00   361.55     0  07:01           0       0.874       1.621
  WS02006247           JUNCTION      0.00   365.93     0  07:01           0       0.876       0.939
  WS02006248           JUNCTION      0.00   370.52     0  07:00           0       0.877       0.433
  WS02006249           JUNCTION      0.00   376.19     0  07:00           0        0.89       1.521
  WS02006239           JUNCTION      0.00   328.90     0  07:02           0       0.995       0.774
  WS02006251           JUNCTION      0.08   399.73     0  07:00     0.00217       0.918       0.926
  WS02006252           JUNCTION      0.00   399.78     0  07:00           0        0.78       0.059
  WS02006253           JUNCTION      1.02    30.59     0  02:15      0.0028        0.14       3.315
  WS02006256           JUNCTION      0.00   983.00     0  00:00           0        3.33      -0.006
  WS02004138           JUNCTION      0.00   380.00     0  00:00           0        7.41       0.075
  WS02004139           JUNCTION      0.32   396.51     0  00:00     0.00905        7.41       0.620
  WS02004407           JUNCTION      0.00   420.50     0  07:46           0        3.54       0.237
  WS02006228           JUNCTION      0.00   429.37     0  07:44           0        3.75       0.393
  WS02006229           JUNCTION      0.00   429.51     0  07:44           0        3.77       0.397
  WS02006280           JUNCTION      0.00   160.76     0  02:16           0        0.78       0.010
  WS02006284           JUNCTION      0.10   160.75     0  02:16      0.0027       0.781       0.143
  WS02006287           JUNCTION      0.00   160.66     0  02:16           0       0.779       0.091
  WSF200               JUNCTION      0.00   409.32     0  07:48           0         3.4       0.156
  HS02004901           JUNCTION      8.49     8.49     0  02:08       0.026      0.0262       7.199
  HS02004881           JUNCTION      3.47    29.79     0  02:15      0.0114       0.118       0.053
  HS02004876           JUNCTION      5.61    26.58     0  02:15      0.0217       0.107       0.488
  HS02004870           JUNCTION      6.17    21.11     0  02:15      0.0215      0.0857       0.125
  HS02004862           JUNCTION      5.17    15.37     0  02:16       0.027      0.0644       0.260
  HS02004856           JUNCTION      4.58    10.25     0  02:15      0.0161      0.0388       3.853
  HS02004852           JUNCTION      0.00     5.98     0  02:15           0      0.0227       0.215
  HS02004848           JUNCTION     10.22    10.22     0  02:18      0.0509      0.0509       0.086
  HS02004842           JUNCTION      0.00     4.54     0  02:27           0      0.0412      46.022
  HS02004837           JUNCTION     16.29    20.28     0  02:14       0.216       0.245       0.335
  HS02004830           JUNCTION      0.15    20.42     0  02:15     0.00423       0.235       0.526
  HS02004824           JUNCTION     11.47    31.76     0  02:18      0.0668       0.301       0.180
  HS02004817           JUNCTION      0.60    32.35     0  02:19      0.0169       0.317       5.547
  HS02004807           JUNCTION     11.58    42.94     0  02:17      0.0395        0.34       1.259
  HS02004802           JUNCTION      0.00    43.07     0  02:18           0       0.336       1.228
  HS02004799           JUNCTION      8.95   100.29     0  02:13      0.0319       0.395       0.587
  HS02004792           JUNCTION     39.83    91.53     0  02:13       0.141       0.364       0.115
  HS02004788           JUNCTION     13.83    53.30     0  02:14      0.0914       0.224       0.176
  HS02004785           JUNCTION      0.15    39.87     0  02:13     0.00423       0.134       0.358
  HS02004777           JUNCTION      0.03    40.23     0  02:12    0.000846       0.135       3.994
  HS02004770           JUNCTION     33.62    41.23     0  02:09       0.111       0.136       2.339
  HS02004480           JUNCTION      0.00   118.25     0  02:14           0       0.459       0.151
  HS02004479           JUNCTION      0.00    18.31     0  02:16           0      0.0763       0.965
  HS02004478           JUNCTION      0.00   160.66     0  02:15           0        0.78       0.080
  YS02001745           JUNCTION     56.17    56.17     0  03:01       0.654       0.655       1.228
  YS02001748           JUNCTION      0.04   107.44     0  03:15     0.00127       0.663       3.477
  YS02001751           JUNCTION      0.01   151.35     0  03:14     0.00031       0.641       3.904
  YS02001754           JUNCTION      0.26   100.70     0  03:16     0.00733       0.613       4.255
  YS02001762           JUNCTION      0.00    93.64     0  03:18           0       0.692       3.299
  YS02001765           JUNCTION      0.00    87.02     0  03:01           0       0.695       3.733
  YS02001767           JUNCTION      0.54   118.61     0  03:19      0.0151       0.718       5.323
  YS02001770           JUNCTION     72.53   116.69     0  03:19       0.773       0.799       4.262
  YS02001774           JUNCTION      0.00    62.67     0  03:19           0       0.088      41.993
  YS02001779           JUNCTION      0.01    62.44     0  03:19    0.000141      0.0364      74.185
  YS02001882           JUNCTION      0.00     2.89     0  02:06           0     0.00429      57.740
  YS02001884           JUNCTION      0.00     8.59     0  02:07           0      0.0173      36.546
  YS02001759           JUNCTION     71.02   152.70     0  03:18       0.723        1.38       1.780
  YS02001887           JUNCTION     94.09    94.09     0  02:41       0.872        0.88       0.791
  YS02001890           JUNCTION      0.00    93.44     0  02:43           0       0.859       0.891
  YS02001898           JUNCTION      0.00    93.07     0  02:45           0       0.848       0.235
  YS02001901           JUNCTION      0.00    92.94     0  02:47           0       0.847       0.627
  YS02001904           JUNCTION      0.00    92.72     0  02:48           0       0.846       0.583
  YS02001907           JUNCTION      0.00   168.32     0  02:56           0         1.8       1.216
  YS02001910           JUNCTION      0.00    76.69     0  03:01           0       0.968       1.028
  YS02001915           JUNCTION     50.40    76.47     0  03:01       0.562       0.972       0.440
  YS02001918           JUNCTION      0.00    26.28     0  03:03           0        0.41       0.244
  YS02001619           JUNCTION     48.98    48.98     0  02:59       0.554       0.554       2.347
  YS02001629           JUNCTION      0.00    85.89     0  03:25           0       0.474       6.656
  YS02001641           JUNCTION      0.00   108.85     0  03:17           0        1.01       2.174
  YS02001644           JUNCTION     53.35   154.39     0  03:03       0.628        1.61       1.669
  YS02001652           JUNCTION      0.00    93.06     0  03:10           0       0.577       4.355
  YS02001655           JUNCTION      0.15   149.14     0  03:13     0.00434        0.61       4.266
  YS02001920           JUNCTION      2.87    26.30     0  03:02      0.0809       0.412       0.460
  YS02001923           JUNCTION      0.04    23.43     0  03:02     0.00106       0.332       0.080
  YS02001926           JUNCTION      0.05    23.45     0  03:01     0.00147       0.332       0.580
  YS02001929           JUNCTION     23.40    23.40     0  03:01       0.331       0.331       0.077
  YS02001658           JUNCTION      0.00   100.02     0  04:07           0       0.633       3.724
  YS02001661           JUNCTION      0.00    68.46     0  04:08           0       0.649       2.443
  YS02001664           JUNCTION     66.48    66.48     0  02:44       0.635       0.646       0.234
  YS02001622           JUNCTION      0.00    71.32     0  03:23           0       0.542       6.321
  YS02001633           JUNCTION     54.26   104.86     0  03:04       0.646        1.07       3.134
  YS02001649           JUNCTION      0.00   233.37     0  03:02           0        2.09       1.867
  YS02001757           JUNCTION      0.00   393.09     0  02:38           0        3.96       2.435
  YS02001895           JUNCTION      0.00    93.22     0  02:46           0       0.851       0.413
  YS02001625           JUNCTION      0.00    82.92     0  03:24           0       0.513       8.266
  YS02163301           JUNCTION      0.00    58.30     0  03:15           0       0.449       5.847
  YS02163601           JUNCTION      0.11   112.28     0  03:20      0.0031        1.03       3.038
  YS02164001           JUNCTION      0.00   109.86     0  03:17           0        1.01       2.164
  YS02001647           JUNCTION      0.00   158.94     0  03:13           0        1.57       1.864
  YSB1154              JUNCTION      9.97     9.97     0  02:12      0.0387        0.04       3.751
  YSB6556              JUNCTION      0.00     9.94     0  02:15           0      0.0409       3.135
  YSB1174              JUNCTION      9.58     9.58     0  02:07      0.0282      0.0291       4.613
  YSB1171              JUNCTION      0.00    18.39     0  02:13           0      0.0756       9.122
  YS02006553           JUNCTION      0.00   168.38     0  02:57           0        1.79       0.790
  YS02006561           JUNCTION      0.00   247.15     0  02:54           0        2.54       0.024
  YS02006556           JUNCTION      0.00   168.43     0  02:57           0         1.8       0.568
  YS02006558           JUNCTION     79.53   247.15     0  02:54       0.794        2.56       0.173
  YS02001783           JUNCTION      0.00   247.15     0  02:54           0        2.54       0.055
  YS02001784           JUNCTION      1.06   252.63     0  02:44      0.0299        2.56       0.092
  YS02001786           JUNCTION      0.06   265.79     0  02:44     0.00159        2.56       0.089
  YS02001788           JUNCTION      0.07   294.06     0  02:43       0.002        2.56       0.052
  YS02001790           JUNCTION      0.15   354.11     0  02:43     0.00437        2.57       0.056
  YS02001791           JUNCTION      0.00   339.86     0  02:43           0        2.57       0.037
  YS02001793           JUNCTION      0.00   433.51     0  03:39           0        2.57       0.041
  WSC                  OUTFALL       0.00   791.58     0  07:50           0        11.2       0.000
  JK-storage           STORAGE       0.00   499.15     0  03:40           0        2.72     -18.410
  CC-storage           STORAGE       0.00   375.21     0  03:01           0        3.86       1.515
  XR-storage           STORAGE     299.29   299.29     0  02:58        6.85        7.45      -1.215
  
  
  **********************
  Node Surcharge Summary
  **********************
  
  Surcharging occurs when water rises above the top of the highest conduit.
  ---------------------------------------------------------------------
                                               Max. Height   Min. Depth
                                   Hours       Above Crown    Below Rim
  Node                 Type      Surcharged         Meters       Meters
  ---------------------------------------------------------------------
  WS02006109           JUNCTION        0.14          0.033        1.787
  WS02006232           JUNCTION        0.17          0.071        1.409
  WS02006234           JUNCTION        0.05          0.015        1.225
  WS02006235           JUNCTION        0.13          0.074        1.216
  WS02006238           JUNCTION        0.14          0.088        1.342
  WS02006242           JUNCTION        0.01          0.003        0.817
  WS02006239           JUNCTION        0.05          0.019        1.271
  WS02006252           JUNCTION        0.13          0.184        0.916
  WS02006256           JUNCTION        5.59          2.050        0.000
  WS02006228           JUNCTION        0.13          0.036        2.164
  YS02001748           JUNCTION        0.11          0.011        1.179
  YS02001751           JUNCTION        3.04          0.295        0.905
  YS02001754           JUNCTION        3.85          0.515        0.635
  YS02001762           JUNCTION        4.71          0.786        0.364
  YS02001765           JUNCTION        4.52          0.744        0.356
  YS02001767           JUNCTION        4.42          0.708        0.322
  YS02001770           JUNCTION        4.30          0.681        0.239
  YS02001774           JUNCTION        4.62          0.785        0.265
  YS02001779           JUNCTION        3.74          0.521        0.159
  YS02001759           JUNCTION        4.83          0.815        0.395
  YS02001619           JUNCTION        2.83          0.249        0.361
  YS02001629           JUNCTION        2.83          0.246        0.224
  YS02001641           JUNCTION        4.58          0.732        0.368
  YS02001644           JUNCTION        4.58          0.746        0.174
  YS02001652           JUNCTION        3.98          0.547        0.583
  YS02001655           JUNCTION        3.16          0.323        0.877
  YS02001658           JUNCTION        0.32          0.027        1.273
  YS02001622           JUNCTION        2.95          0.283        0.337
  YS02001633           JUNCTION        4.46          0.700        0.360
  YS02001649           JUNCTION        4.75          0.784        0.266
  YS02001757           JUNCTION        5.17          0.914        0.296
  YS02001625           JUNCTION        4.05          0.571        0.209
  YS02163301           JUNCTION        4.34          0.660        0.370
  YS02163601           JUNCTION        4.72          0.772        0.308
  YS02164001           JUNCTION        4.50          0.711        0.389
  YS02001647           JUNCTION        4.03          0.565        0.335
  YS02001790           JUNCTION        0.13          0.168        0.989
  YS02001791           JUNCTION        0.26          0.336        1.584
  YS02001793           JUNCTION        0.60          0.775        1.825
  
  
  *********************
  Node Flooding Summary
  *********************
  
  Flooding refers to all water that overflows a node, whether it ponds or not.
  --------------------------------------------------------------------------
                                                             Total   Maximum
                                 Maximum   Time of Max       Flood    Ponded
                        Hours       Rate    Occurrence      Volume     Depth
  Node                 Flooded       LPS   days hr:min    10^6 ltr    Meters
  --------------------------------------------------------------------------
  WS02006256              1.53    978.40      0  00:00       1.366     0.000
  
  
  **********************
  Storage Volume Summary
  **********************
  
  --------------------------------------------------------------------------------------------------
                         Average     Avg  Evap Exfil       Maximum     Max    Time of Max    Maximum
                          Volume    Pcnt  Pcnt  Pcnt        Volume    Pcnt     Occurrence    Outflow
  Storage Unit           1000 m3    Full  Loss  Loss       1000 m3    Full    days hr:min        LPS
  --------------------------------------------------------------------------------------------------
  JK-storage               0.085      29     0     0         0.291     100       0  05:20     983.00
  CC-storage               2.121      14     0     0         3.230      21       0  06:52     399.78
  XR-storage               0.249      27     0     0         0.600      65       0  06:56     380.00
  
  
  ***********************
  Outfall Loading Summary
  ***********************
  
  ---------------------------------------------------------------------------------------------------------------------------------
                         Flow       Avg       Max       Total         Total         Total         Total         Total         Total
                         Freq      Flow      Flow      Volume           COD            SS            TN            TP         NH4-N
  Outfall Node           Pcnt       LPS       LPS    10^6 ltr            kg            kg            kg            kg            kg
  ---------------------------------------------------------------------------------------------------------------------------------
  WSC                   99.97    434.05    791.58      11.189      1670.050      2683.839       150.273        18.613        93.463
  ---------------------------------------------------------------------------------------------------------------------------------
  System                99.97    434.05    791.58      11.189      1670.050      2683.839       150.273        18.613        93.463
  
  
  ********************
  Link Flow Summary
  ********************
  
  -----------------------------------------------------------------------------
                                 Maximum  Time of Max   Maximum    Max/    Max/
                                  |Flow|   Occurrence   |Veloc|    Full    Full
  Link                 Type          LPS  days hr:min     m/sec    Flow   Depth
  -----------------------------------------------------------------------------
  WS02003066WSF200     CONDUIT    409.32     0  07:48      2.67    0.07    0.19
  WS02006287WS02006284 CONDUIT    160.65     0  02:16      1.49    0.07    0.20
  WS02006284WS02006280 CONDUIT    160.76     0  02:16      1.73    0.07    0.18
  WS02006280WS02006229 CONDUIT    160.76     0  02:16      2.78    0.03    0.13
  WS02006229WS02006228 CONDUIT    429.37     0  07:44      0.96    1.42    1.00
  WS02006256WS02006235 CONDUIT    288.60     0  00:00      4.23    3.05    1.00
  WS02006253WS02006251 CONDUIT     30.57     0  02:16      0.45    0.09    0.84
  WS02006252WS02006251 CONDUIT    399.66     0  07:00      3.18    1.47    1.00
  WS02006251WS02006249 CONDUIT    376.19     0  07:00      1.13    1.08    0.82
  WS02006249WS02006248 CONDUIT    370.52     0  07:00      1.19    2.03    0.76
  WS02006248WS02006247 CONDUIT    365.93     0  07:01      1.17    0.80    0.77
  WS02006247WS02006245 CONDUIT    361.55     0  07:01      1.15    2.87    0.77
  WS02006245WS02006243 CONDUIT    356.48     0  07:01      1.20    1.05    0.81
  WS02006243WS02006242 CONDUIT    346.44     0  07:01      1.08    0.74    0.93
  WS02006242WS02006240 CONDUIT    339.53     0  07:02      1.02    1.35    0.99
  WS02006240WS02006239 CONDUIT    328.90     0  07:02      1.10    1.03    0.99
  WS02006239WS02006238 CONDUIT    321.60     0  07:02      0.99    1.03    1.00
  WS02006238WS02006235 CONDUIT    326.12     0  07:44      1.46    0.73    1.00
  WS02006235WS02006234 CONDUIT    411.43     0  07:43      1.14    4.34    1.00
  WS02006234WS02006232 CONDUIT    410.97     0  07:43      1.39    0.83    1.00
  WS02006232WS02006231 CONDUIT    410.96     0  07:43      1.10    0.86    0.93
  WS02006231WS02006230 CONDUIT    409.98     0  07:43      1.35    6.22    0.80
  WS02006230WS02006229 CONDUIT    419.29     0  07:44      1.09    9.33    1.00
  WS02006228WS02006109 CONDUIT    429.40     0  07:44      0.85    1.88    1.00
  WS02006116WS02004401 CONDUIT    424.58     0  07:45      0.68    0.59    0.75
  WS02006115WS02006116 CONDUIT    426.44     0  07:45      0.86    0.55    0.66
  WS02006113WS02006111 CONDUIT    441.49     0  07:44      2.27    0.53    0.41
  WS02006112WS02006115 CONDUIT    428.89     0  07:45      0.66    0.25    0.79
  WS02006111WS02006112 CONDUIT    431.90     0  07:44      1.24    0.21    0.65
  WS02006110WS02006113 CONDUIT    430.56     0  07:44      1.06    0.39    0.75
  WS02006109WS02006110 CONDUIT    430.70     0  07:44      0.87    0.83    0.95
  WS02004411WS02004412 CONDUIT    412.44     0  07:47      0.82    0.59    0.61
  WS02004401WS02004402 CONDUIT    423.23     0  07:45      0.65    0.51    0.77
  WS02004413WS02003067 CONDUIT    409.24     0  07:48      0.96    0.18    0.53
  WS02004412WS02004413 CONDUIT    410.62     0  07:48      0.70    0.28    0.70
  WS02004410WS02004411 CONDUIT    414.56     0  07:47      0.85    0.57    0.60
  WS02004409WS02004410 CONDUIT    417.24     0  07:47      0.88    0.54    0.58
  WS02004407WS02004409 CONDUIT    420.13     0  07:46      1.38    0.15    0.42
  WS02004406WS02004407 CONDUIT    420.50     0  07:46      0.90    0.19    0.57
  WS02004405WS02004406 CONDUIT    421.04     0  07:46      0.57    0.83    0.88
  WS02004404WS02004405 CONDUIT    421.30     0  07:46      0.57    4.13    0.88
  WS02004403WS02004404 CONDUIT    421.50     0  07:46      0.59    0.30    0.85
  WS02004402WS02004403 CONDUIT    422.22     0  07:46      0.63    0.61    0.80
  WS02004139WS02001211 CONDUIT    381.33     0  03:23      0.90    0.48    0.58
  WS02004138WS02004139 CONDUIT    396.19     0  00:00      3.65    0.08    0.43
  WS02003067WS02003066 CONDUIT    409.42     0  07:48      1.04    0.13    0.38
  WS02001213WS02003059 CONDUIT    393.23     0  03:22      0.88    0.65    0.74
  WS02001212WS02001213 CONDUIT    391.11     0  03:22      1.32    0.60    0.45
  WS02001211WS02001212 CONDUIT    389.87     0  03:22      0.78    0.30    0.63
  WS02003072WS02003073 CONDUIT    798.15     0  07:50      1.63    1.72    0.45
  WS02003069WS02003072 CONDUIT    802.76     0  07:50      1.54    0.39    0.47
  WS02003060WS02003069 CONDUIT    804.48     0  07:49      1.80    0.32    0.42
  WS02003059WS02003060 CONDUIT    396.26     0  03:21      0.95    0.26    0.62
  HS02004901HS02004770 CONDUIT      7.82     0  02:12      0.04    0.03    0.29
  HS02004876HS02004881 CONDUIT     26.62     0  02:16      0.47    0.28    0.08
  HS02004870HS02004876 CONDUIT     21.09     0  02:16      0.33    0.01    0.09
  HS02004842HS02004848 CONDUIT      4.54     0  02:27      0.02    0.00    0.27
  HS02004837HS02004842 CONDUIT      4.68     0  02:28      0.42    0.00    0.28
  HS02004830HS02004837 CONDUIT     20.27     0  02:15      0.41    0.02    0.07
  HS02004824HS02004830 CONDUIT     20.42     0  02:16      0.45    0.03    0.06
  HS02004817HS02004824 CONDUIT     31.75     0  02:19      0.17    0.01    0.38
  HS02004770HS02004777 CONDUIT     40.20     0  02:12      0.19    0.07    0.31
  HS02004799HS02004480 CONDUIT    100.14     0  02:14      0.52    0.13    0.28
  HS02004792HS02004799 CONDUIT     91.49     0  02:13      0.60    0.06    0.22
  HS02004788HS02004792 CONDUIT     53.26     0  02:15      0.76    0.04    0.10
  HS02004785HS02004788 CONDUIT     39.75     0  02:15      0.45    0.30    0.13
  HS02004777HS02004785 CONDUIT     39.72     0  02:13      0.23    0.05    0.25
  HS02004480HS02004478 CONDUIT    118.17     0  02:15      0.86    0.50    0.20
  HS02004479HS02004480 CONDUIT     18.48     0  02:17      0.15    0.02    0.27
  HS02004862HS02004870 CONDUIT     15.33     0  02:17      0.42    0.02    0.05
  HS02004848HS02004852 CONDUIT      5.98     0  02:15      0.28    0.01    0.03
  HS02004856HS02004862 CONDUIT     10.23     0  02:16      0.30    0.01    0.05
  HS02004852HS02004856 CONDUIT      5.95     0  02:17      0.10    0.01    0.09
  HS02004802HS02004478 CONDUIT     43.29     0  02:19      0.27    0.04    0.23
  HS02004478WS02006287 CONDUIT    160.66     0  02:16      1.18    0.04    0.15
  HS02004817HS02004807 CONDUIT     32.70     0  02:20      0.10    0.02    0.49
  HS02004807HS02004802 CONDUIT     43.07     0  02:18      0.22    0.08    0.28
  YS02001759YS02001757 CONDUIT    152.76     0  03:16      0.19    0.11    1.00
  YS02001762YS02001759 CONDUIT     93.12     0  03:18      0.17    0.11    1.00
  YS02001765YS02001762 CONDUIT     93.64     0  03:18      0.24    0.09    1.00
  YS02001770YS02001767 CONDUIT    118.08     0  03:19      0.29    0.47    1.00
  YS02001774YS02001770 CONDUIT     62.67     0  03:19      0.13    0.04    1.00
  YS02001779YS02001774 CONDUIT     62.44     0  03:19      0.08    0.03    1.00
  YS02001649YS02001757 CONDUIT    233.54     0  03:12      0.30    0.14    1.00
  YS02001767YS02001765 CONDUIT     87.02     0  03:01      0.26    0.11    1.00
  YS02006561YS02001783 CONDUIT    247.15     0  02:54      1.68    0.13    0.38
  YS02001783YS02001784 CONDUIT    251.57     0  02:44      1.16    0.35    0.66
  YS02001784YS02001785 CONDUIT    265.73     0  02:44      1.26    0.62    0.72
  YS02001788YS02001790 CONDUIT    353.95     0  02:43      1.77    0.26    0.90
  YS02001790YS02001791 CONDUIT    339.86     0  02:43      2.07    0.37    1.00
  YS02001791YS02001793 CONDUIT    433.51     0  03:39      4.15    0.19    1.00
  YS02001910YS02001907 CONDUIT     76.84     0  03:01      0.49    0.04    0.68
  YS02001786YS02001788 CONDUIT    293.99     0  02:43      1.73    0.57    0.77
  YS02001915YS02001910 CONDUIT     76.69     0  03:01      0.44    0.04    0.47
  YS02001918YS02001915 CONDUIT     26.27     0  03:03      0.44    0.01    0.23
  YS02001923YS02001920 CONDUIT     23.43     0  03:02      0.39    0.01    0.13
  YS02001926YS02001923 CONDUIT     23.39     0  03:02      0.44    0.03    0.12
  YS02001929YS02001926 CONDUIT     23.39     0  03:01      0.47    0.01    0.11
  YS02001920YS02001918 CONDUIT     26.28     0  03:03      0.41    0.03    0.13
  YS02001629YS02163301 CONDUIT     58.30     0  03:15      0.10    0.07    1.00
  YS02001619YS02001622 CONDUIT     71.32     0  03:23      0.60    0.11    1.00
  YS02001622YS02001625 CONDUIT     71.59     0  04:15      0.21    0.04    1.00
  YS02001625YS02001629 CONDUIT     85.89     0  03:25      0.22    0.04    1.00
  YS02163301YS02001633 CONDUIT     51.87     0  03:22      0.07    0.05    1.00
  YS02163601YS02164001 CONDUIT    109.86     0  03:17      0.14    0.10    1.00
  YS02164001YS02001641 CONDUIT    108.85     0  03:17      0.14    0.15    1.00
  YS02001641YS02001644 CONDUIT    102.96     0  03:14      0.14    0.33    1.00
  YS02001647YS02001649 CONDUIT    192.30     0  03:21      0.25    0.10    1.00
  YS02006553YS02006556 CONDUIT    168.43     0  02:57      0.26    0.14    0.77
  YS02006556YS02006558 CONDUIT    168.54     0  03:02      0.25    0.13    0.79
  YSB6556YSB1171       CONDUIT     10.07     0  02:16      0.05    0.01    0.54
  YS02001907YS02006553 CONDUIT    168.38     0  02:57      0.21    0.20    0.87
  YS02006558YS02006561 CONDUIT    247.15     0  02:54      2.16    0.55    0.42
  YS02001633YS02163601 CONDUIT    112.17     0  03:20      0.14    0.12    1.00
  YS02001644YS02001647 CONDUIT    158.94     0  03:13      0.21    0.09    1.00
  YS02001745YS02001748 CONDUIT     86.24     0  04:18      1.33    0.03    0.82
  YS02001748YS02001751 CONDUIT    151.34     0  03:14      1.02    0.08    1.00
  YS02001751YS02001754 CONDUIT     72.29     0  02:54      0.91    0.03    1.00
  YS02001754YS02001757 CONDUIT    121.18     0  03:14      0.33    0.05    1.00
  YS02001882YS02001884 CONDUIT      2.89     0  02:06      0.07    0.00    0.41
  YS02001884YS02001887 CONDUIT      8.59     0  02:07      0.05    0.01    0.50
  YS02001890YS02001895 CONDUIT     93.22     0  02:46      0.26    0.04    0.47
  YS02001895YS02001898 CONDUIT     93.07     0  02:45      0.45    0.16    0.34
  YS02001898YS02001901 CONDUIT     92.94     0  02:47      0.30    0.06    0.42
  YS02001901YS02001904 CONDUIT     92.72     0  02:48      0.26    0.14    0.47
  YS02001904YS02001907 CONDUIT     92.69     0  02:50      0.18    0.03    0.63
  YS02001887YS02001890 CONDUIT     93.44     0  02:43      0.21    0.16    0.56
  YS02001652YS02001649 CONDUIT    136.53     0  03:12      0.28    0.07    1.00
  YS02001655YS02001652 CONDUIT     87.56     0  03:09      0.97    0.04    1.00
  YS02001658YS02001655 CONDUIT    148.99     0  03:13      1.18    0.06    1.00
  YS02001661YS02001658 CONDUIT     83.66     0  04:07      1.35    0.03    0.85
  YS02001664YS02001661 CONDUIT     66.48     0  02:44      0.99    0.02    0.50
  YSB1154YSB6556       CONDUIT      9.94     0  02:15      0.19    0.02    0.43
  YSB1174YSB1171       CONDUIT      9.03     0  02:09      0.04    0.01    0.55
  YSB1171HS02004479    CONDUIT     18.31     0  02:16      0.54    0.01    0.42
  HS02004881HS02006253 CONDUIT     29.78     0  02:16      1.50    0.01    0.19
  YS02001793JiankangQianchi CONDUIT    499.15     0  03:40     12.51    0.04    1.00
  YS02001757CaochengTiaoxuchi CONDUIT    375.21     0  03:01      0.79    0.16    1.00
  WSF200WS02003060     CONDUIT    409.71     0  07:49      1.71    0.09    0.30
  1                    CONDUIT    791.58     0  07:50      3.12    0.28    0.36
  CC-Pump-1            PUMP       200.00     0  07:30              1.00
  CC-Pump-2            PUMP       199.89     0  07:00              1.00
  JK-Pump-1            PUMP       300.00     0  00:00              1.00
  JK-Pump-2            PUMP       683.00     0  00:00              1.00
  XR-Pump-1            PUMP        95.00     0  00:00              1.00
  XR-Pump-2            PUMP        95.00     0  00:00              1.00
  XR-Pump-3            PUMP        95.00     0  00:00              1.00
  XR-Pump-4            PUMP        95.00     0  00:00              1.00
  
  
  ***************************
  Flow Classification Summary
  ***************************
  
  -------------------------------------------------------------------------------------
                      Adjusted    ---------- Fraction of Time in Flow Class ---------- 
                       /Actual         Up    Down  Sub   Sup   Up    Down  Norm  Inlet 
  Conduit               Length    Dry  Dry   Dry   Crit  Crit  Crit  Crit  Ltd   Ctrl  
  -------------------------------------------------------------------------------------
  WS02003066WSF200        1.00   0.03  0.11  0.00  0.00  0.86  0.00  0.00  0.69  0.00
  WS02006287WS02006284    1.00   0.05  0.04  0.00  0.73  0.19  0.00  0.00  0.79  0.00
  WS02006284WS02006280    1.00   0.06  0.00  0.00  0.00  0.00  0.00  0.94  0.00  0.00
  WS02006280WS02006229    1.00   0.06  0.00  0.00  0.00  0.00  0.00  0.94  0.00  0.00
  WS02006229WS02006228    1.00   0.00  0.00  0.00  0.99  0.00  0.00  0.01  0.00  0.00
  WS02006256WS02006235    1.00   0.00  0.00  0.00  1.00  0.00  0.00  0.00  0.00  0.00
  WS02006253WS02006251    1.00   0.02  0.03  0.00  0.94  0.00  0.01  0.00  0.00  0.00
  WS02006252WS02006251    1.00   0.49  0.00  0.00  0.00  0.00  0.51  0.00  0.00  0.00
  WS02006251WS02006249    1.00   0.00  0.00  0.00  1.00  0.00  0.00  0.00  0.79  0.00
  WS02006249WS02006248    1.00   0.00  0.01  0.00  0.55  0.00  0.44  0.00  0.00  0.00
  WS02006248WS02006247    1.00   0.01  0.00  0.00  0.96  0.00  0.00  0.03  0.54  0.00
  WS02006247WS02006245    1.00   0.01  0.00  0.00  0.92  0.00  0.00  0.07  0.00  0.00
  WS02006245WS02006243    1.00   0.01  0.00  0.00  0.81  0.00  0.00  0.18  0.02  0.00
  WS02006243WS02006242    1.00   0.00  0.00  0.00  0.98  0.00  0.00  0.01  0.59  0.00
  WS02006242WS02006240    1.00   0.00  0.00  0.00  0.98  0.00  0.02  0.00  0.00  0.00
  WS02006240WS02006239    1.00   0.00  0.00  0.00  0.77  0.00  0.00  0.22  0.02  0.00
  WS02006239WS02006238    1.00   0.00  0.00  0.00  1.00  0.00  0.00  0.00  0.30  0.00
  WS02006238WS02006235    1.00   0.00  0.00  0.00  1.00  0.00  0.00  0.00  0.00  0.00
  WS02006235WS02006234    1.00   0.00  0.00  0.00  0.85  0.00  0.15  0.00  0.00  0.00
  WS02006234WS02006232    1.00   0.00  0.00  0.00  1.00  0.00  0.00  0.00  0.20  0.00
  WS02006232WS02006231    1.00   0.00  0.00  0.00  0.99  0.00  0.01  0.00  0.00  0.00
  WS02006231WS02006230    1.00   0.00  0.00  0.00  0.21  0.00  0.79  0.00  0.00  0.00
  WS02006230WS02006229    1.00   0.00  0.00  0.00  0.99  0.00  0.00  0.01  0.02  0.00
  WS02006228WS02006109    1.00   0.00  0.00  0.00  1.00  0.00  0.00  0.00  0.01  0.00
  WS02006116WS02004401    1.00   0.02  0.00  0.00  0.98  0.00  0.00  0.00  0.01  0.00
  WS02006115WS02006116    1.00   0.02  0.00  0.00  0.95  0.00  0.00  0.03  0.01  0.00
  WS02006113WS02006111    1.00   0.01  0.00  0.00  0.00  0.99  0.00  0.00  0.23  0.00
  WS02006112WS02006115    1.00   0.01  0.01  0.00  0.98  0.00  0.00  0.00  0.00  0.00
  WS02006111WS02006112    1.00   0.01  0.00  0.00  0.99  0.00  0.00  0.00  0.98  0.00
  WS02006110WS02006113    1.00   0.01  0.00  0.00  0.99  0.00  0.00  0.00  0.00  0.00
  WS02006109WS02006110    1.00   0.00  0.01  0.00  0.99  0.00  0.00  0.00  0.00  0.00
  WS02004411WS02004412    1.00   0.10  0.00  0.00  0.90  0.00  0.00  0.00  0.00  0.00
  WS02004401WS02004402    1.00   0.02  0.00  0.00  0.98  0.00  0.00  0.00  0.01  0.00
  WS02004413WS02003067    1.00   0.10  0.03  0.00  0.00  0.00  0.87  0.00  0.00  0.00
  WS02004412WS02004413    1.00   0.10  0.00  0.00  0.90  0.00  0.00  0.00  0.02  0.00
  WS02004410WS02004411    1.00   0.09  0.00  0.00  0.91  0.00  0.00  0.00  0.00  0.00
  WS02004409WS02004410    1.00   0.09  0.00  0.00  0.91  0.00  0.00  0.00  0.00  0.00
  WS02004407WS02004409    1.00   0.09  0.00  0.00  0.90  0.01  0.00  0.00  0.78  0.00
  WS02004406WS02004407    1.00   0.00  0.09  0.00  0.91  0.00  0.00  0.00  0.00  0.00
  WS02004405WS02004406    1.00   0.00  0.00  0.00  1.00  0.00  0.00  0.00  0.02  0.00
  WS02004404WS02004405    1.00   0.00  0.00  0.00  1.00  0.00  0.00  0.00  0.00  0.00
  WS02004403WS02004404    1.00   0.00  0.02  0.00  0.98  0.00  0.00  0.00  0.02  0.00
  WS02004402WS02004403    1.00   0.02  0.00  0.00  0.98  0.00  0.00  0.00  0.00  0.00
  WS02004139WS02001211    1.00   0.00  0.00  0.00  1.00  0.00  0.00  0.00  0.00  0.00
  WS02004138WS02004139    1.00   0.00  0.00  0.00  0.99  0.00  0.00  0.00  1.00  0.00
  WS02003067WS02003066    1.00   0.13  0.01  0.00  0.86  0.00  0.00  0.00  0.00  0.00
  WS02001213WS02003059    1.00   0.00  0.00  0.00  1.00  0.00  0.00  0.00  0.00  0.00
  WS02001212WS02001213    1.00   0.00  0.00  0.00  0.68  0.00  0.31  0.00  0.00  0.00
  WS02001211WS02001212    1.00   0.00  0.00  0.00  1.00  0.00  0.00  0.00  0.00  0.00
  WS02003072WS02003073    1.00   0.00  0.00  0.00  0.00  0.00  0.00  1.00  0.00  0.00
  WS02003069WS02003072    1.00   0.00  0.00  0.00  1.00  0.00  0.00  0.00  0.31  0.00
  WS02003060WS02003069    1.00   0.00  0.00  0.00  0.95  0.05  0.00  0.00  0.23  0.00
  WS02003059WS02003060    1.00   0.00  0.00  0.00  1.00  0.00  0.00  0.00  0.00  0.00
  HS02004901HS02004770    1.00   0.06  0.00  0.00  0.94  0.00  0.00  0.00  0.02  0.00
  HS02004876HS02004881    1.00   0.01  0.00  0.00  0.99  0.00  0.00  0.00  0.00  0.00
  HS02004870HS02004876    1.00   0.00  0.00  0.00  0.99  0.00  0.00  0.00  0.95  0.00
  HS02004842HS02004848    1.00   0.00  0.06  0.00  0.94  0.00  0.00  0.00  0.67  0.00
  HS02004837HS02004842    1.00   0.00  0.00  0.00  1.00  0.00  0.00  0.00  0.11  0.00
  HS02004830HS02004837    1.00   0.00  0.00  0.00  1.00  0.00  0.00  0.00  0.99  0.00
  HS02004824HS02004830    1.00   0.00  0.00  0.00  1.00  0.00  0.00  0.00  0.00  0.00
  HS02004817HS02004824    1.00   0.00  0.00  0.00  1.00  0.00  0.00  0.00  1.00  0.00
  HS02004770HS02004777    1.00   0.00  0.06  0.00  0.94  0.00  0.00  0.00  0.06  0.00
  HS02004799HS02004480    1.00   0.00  0.02  0.00  0.91  0.00  0.07  0.00  0.00  0.00
  HS02004792HS02004799    1.00   0.00  0.00  0.00  0.99  0.01  0.00  0.00  0.98  0.00
  HS02004788HS02004792    1.00   0.00  0.00  0.00  0.99  0.01  0.00  0.00  0.98  0.00
  HS02004785HS02004788    1.00   0.00  0.00  0.00  1.00  0.00  0.00  0.00  0.00  0.00
  HS02004777HS02004785    1.00   0.00  0.00  0.00  1.00  0.00  0.00  0.00  0.19  0.00
  HS02004480HS02004478    1.00   0.07  0.00  0.00  0.74  0.00  0.00  0.19  0.00  0.00
  HS02004479HS02004480    1.00   0.02  0.00  0.00  0.98  0.00  0.00  0.00  0.16  0.00
  HS02004862HS02004870    1.00   0.00  0.00  0.00  1.00  0.00  0.00  0.00  0.06  0.00
  HS02004848HS02004852    1.00   0.06  0.00  0.00  0.94  0.00  0.00  0.00  0.71  0.00
  HS02004856HS02004862    1.00   0.00  0.11  0.00  0.89  0.00  0.00  0.00  0.75  0.00
  HS02004852HS02004856    1.00   0.06  0.02  0.00  0.92  0.00  0.00  0.00  0.82  0.00
  HS02004802HS02004478    1.00   0.06  0.01  0.00  0.92  0.00  0.00  0.00  0.00  0.00
  HS02004478WS02006287    1.00   0.08  0.00  0.00  0.88  0.03  0.00  0.00  0.81  0.00
  HS02004817HS02004807    1.00   0.00  0.06  0.00  0.94  0.00  0.00  0.00  0.00  0.00
  HS02004807HS02004802    1.00   0.06  0.00  0.00  0.93  0.00  0.00  0.00  0.01  0.00
  YS02001759YS02001757    1.00   0.00  0.00  0.00  1.00  0.00  0.00  0.00  0.18  0.00
  YS02001762YS02001759    1.00   0.00  0.00  0.00  1.00  0.00  0.00  0.00  0.04  0.00
  YS02001765YS02001762    1.00   0.00  0.00  0.00  1.00  0.00  0.00  0.00  0.21  0.00
  YS02001770YS02001767    1.00   0.00  0.00  0.00  1.00  0.00  0.00  0.00  0.00  0.00
  YS02001774YS02001770    1.00   0.00  0.08  0.00  0.92  0.00  0.00  0.00  0.06  0.00
  YS02001779YS02001774    1.00   0.00  0.00  0.00  1.00  0.00  0.00  0.00  0.26  0.00
  YS02001649YS02001757    1.00   0.00  0.00  0.00  1.00  0.00  0.00  0.00  0.19  0.00
  YS02001767YS02001765    1.00   0.00  0.00  0.00  1.00  0.00  0.00  0.00  0.01  0.00
  YS02006561YS02001783    1.00   0.11  0.00  0.00  0.02  0.87  0.00  0.00  0.74  0.00
  YS02001783YS02001784    1.00   0.00  0.12  0.00  0.88  0.00  0.00  0.00  0.01  0.00
  YS02001784YS02001785    1.00   0.00  0.00  0.00  1.00  0.00  0.00  0.00  0.25  0.00
  YS02001788YS02001790    1.00   0.00  0.00  0.00  0.16  0.84  0.00  0.00  0.79  0.00
  YS02001790YS02001791    1.00   0.00  0.00  0.00  0.07  0.93  0.00  0.00  0.40  0.00
  YS02001791YS02001793    1.00   0.00  0.00  0.00  0.11  0.89  0.00  0.00  0.07  0.00
  YS02001910YS02001907    1.00   0.00  0.00  0.00  0.98  0.00  0.00  0.01  0.13  0.00
  YS02001786YS02001788    1.00   0.00  0.00  0.00  0.15  0.85  0.00  0.00  0.00  0.00
  YS02001915YS02001910    1.00   0.00  0.00  0.00  0.99  0.01  0.00  0.00  0.23  0.00
  YS02001918YS02001915    1.00   0.00  0.00  0.00  0.99  0.01  0.00  0.00  0.82  0.00
  YS02001923YS02001920    1.00   0.00  0.00  0.00  1.00  0.00  0.00  0.00  1.00  0.00
  YS02001926YS02001923    1.00   0.00  0.03  0.00  0.00  0.00  0.97  0.00  0.00  0.00
  YS02001929YS02001926    1.00   0.00  0.06  0.00  0.94  0.00  0.00  0.00  0.86  0.00
  YS02001920YS02001918    1.00   0.00  0.00  0.00  1.00  0.00  0.00  0.00  0.00  0.00
  YS02001629YS02163301    1.00   0.09  0.01  0.00  0.90  0.00  0.00  0.00  0.00  0.00
  YS02001619YS02001622    1.00   0.06  0.00  0.00  0.94  0.00  0.00  0.00  0.00  0.00
  YS02001622YS02001625    1.00   0.06  0.00  0.00  0.94  0.00  0.00  0.00  0.12  0.00
  YS02001625YS02001629    1.00   0.06  0.06  0.00  0.85  0.00  0.03  0.00  0.00  0.00
  YS02163301YS02001633    1.00   0.00  0.09  0.00  0.91  0.00  0.00  0.00  0.00  0.00
  YS02163601YS02164001    1.00   0.00  0.04  0.00  0.96  0.00  0.00  0.00  0.00  0.00
  YS02164001YS02001641    1.00   0.01  0.03  0.00  0.96  0.00  0.00  0.00  0.07  0.00
  YS02001641YS02001644    1.00   0.00  0.00  0.00  1.00  0.00  0.00  0.00  0.00  0.00
  YS02001647YS02001649    1.00   0.00  0.11  0.00  0.89  0.00  0.00  0.00  0.01  0.00
  YS02006553YS02006556    1.00   0.01  0.00  0.00  0.99  0.00  0.00  0.00  0.03  0.00
  YS02006556YS02006558    1.00   0.00  0.00  0.00  1.00  0.00  0.00  0.00  0.00  0.00
  YSB6556YSB1171          1.00   0.02  0.04  0.00  0.94  0.00  0.00  0.00  0.00  0.00
  YS02001907YS02006553    1.00   0.00  0.01  0.00  0.99  0.00  0.00  0.00  0.00  0.00
  YS02006558YS02006561    1.00   0.11  0.00  0.00  0.00  0.88  0.00  0.00  0.73  0.00
  YS02001633YS02163601    1.00   0.00  0.01  0.00  0.99  0.00  0.00  0.00  0.20  0.00
  YS02001644YS02001647    1.00   0.00  0.11  0.00  0.89  0.00  0.00  0.00  0.00  0.00
  YS02001745YS02001748    1.00   0.00  0.00  0.00  0.78  0.02  0.00  0.19  0.15  0.00
  YS02001748YS02001751    1.00   0.00  0.00  0.00  0.94  0.06  0.00  0.00  0.23  0.00
  YS02001751YS02001754    1.00   0.00  0.00  0.00  0.87  0.00  0.00  0.13  0.02  0.00
  YS02001754YS02001757    1.00   0.00  0.00  0.00  1.00  0.00  0.00  0.00  0.26  0.00
  YS02001882YS02001884    1.00   0.09  0.01  0.00  0.90  0.00  0.00  0.00  0.00  0.00
  YS02001884YS02001887    1.00   0.03  0.02  0.00  0.95  0.00  0.00  0.00  0.00  0.00
  YS02001890YS02001895    1.00   0.00  0.10  0.00  0.90  0.00  0.00  0.00  0.00  0.00
  YS02001895YS02001898    1.00   0.10  0.00  0.00  0.88  0.00  0.02  0.00  0.00  0.00
  YS02001898YS02001901    1.00   0.10  0.01  0.00  0.90  0.00  0.00  0.00  0.02  0.00
  YS02001901YS02001904    1.00   0.10  0.00  0.00  0.90  0.00  0.00  0.00  0.00  0.00
  YS02001904YS02001907    1.00   0.00  0.09  0.00  0.90  0.00  0.00  0.00  0.00  0.00
  YS02001887YS02001890    1.00   0.00  0.00  0.00  0.98  0.00  0.01  0.00  0.00  0.00
  YS02001652YS02001649    1.00   0.00  0.00  0.00  1.00  0.00  0.00  0.00  0.25  0.00
  YS02001655YS02001652    1.00   0.00  0.00  0.00  0.87  0.00  0.00  0.13  0.02  0.00
  YS02001658YS02001655    1.00   0.00  0.08  0.00  0.85  0.06  0.00  0.00  0.14  0.00
  YS02001661YS02001658    1.00   0.08  0.00  0.00  0.78  0.13  0.00  0.00  0.20  0.00
  YS02001664YS02001661    1.00   0.06  0.00  0.00  0.87  0.07  0.00  0.00  0.53  0.00
  YSB1154YSB6556          1.00   0.06  0.00  0.00  0.94  0.00  0.00  0.00  0.02  0.00
  YSB1174YSB1171          1.00   0.02  0.02  0.00  0.96  0.00  0.00  0.00  0.00  0.00
  YSB1171HS02004479       1.00   0.02  0.00  0.00  0.97  0.00  0.00  0.01  0.13  0.00
  HS02004881HS02006253    1.00   0.03  0.00  0.00  0.30  0.00  0.00  0.67  0.10  0.00
  YS02001793JiankangQianchi    1.00   0.00  0.00  0.00  0.69  0.30  0.00  0.00  0.59  0.00
  YS02001757CaochengTiaoxuchi    1.00   0.00  0.15  0.00  0.85  0.00  0.00  0.00  0.00  0.00
  WSF200WS02003060        1.00   0.00  0.03  0.00  0.76  0.21  0.00  0.00  0.71  0.00
  1                       1.00   0.00  0.00  0.00  0.00  1.00  0.00  0.00  0.45  0.00
  
  
  *************************
  Conduit Surcharge Summary
  *************************
  
  ----------------------------------------------------------------------------
                                                           Hours        Hours 
                         --------- Hours Full --------   Above Full   Capacity
  Conduit                Both Ends  Upstream  Dnstream   Normal Flow   Limited
  ----------------------------------------------------------------------------
  WS02006229WS02006228        0.13      0.15      0.13      0.82         0.13
  WS02006256WS02006235        3.15      3.16      5.58      2.43         0.01
  WS02006252WS02006251        0.05      0.05      0.13      0.11         0.01
  WS02006251WS02006249        0.01      0.01      0.01      0.04         0.01
  WS02006249WS02006248        0.01      0.01      0.01      0.54         0.01
  WS02006247WS02006245        0.01      0.01      0.01      0.84         0.01
  WS02006245WS02006243        0.01      0.01      0.01      0.03         0.01
  WS02006243WS02006242        0.01      0.01      0.01      0.01         0.01
  WS02006242WS02006240        0.01      0.01      0.07      0.16         0.01
  WS02006240WS02006239        0.01      0.01      0.05      0.03         0.01
  WS02006239WS02006238        0.11      0.11      0.14      0.03         0.01
  WS02006238WS02006235        0.14      0.14      0.16      0.01         0.01
  WS02006235WS02006234        0.04      0.05      0.13      3.07         0.01
  WS02006234WS02006232        0.09      0.09      0.17      0.01         0.01
  WS02006232WS02006231        0.01      0.01      0.17      0.01         0.01
  WS02006231WS02006230        0.01      0.01      0.01      3.32         0.01
  WS02006230WS02006229        0.23      0.64      0.23      3.81         0.23
  WS02006228WS02006109        0.14      0.18      0.14      1.84         0.14
  WS02006111WS02006112        0.01      0.01      0.66      0.01         0.01
  WS02006110WS02006113        0.01      0.01      0.16      0.01         0.01
  WS02006109WS02006110        0.01      0.01      0.18      0.01         0.01
  WS02004404WS02004405        0.01      0.01      0.01      4.03         0.01
  WS02003072WS02003073        0.01      0.01      0.01      2.70         0.01
  YS02001759YS02001757        4.83      4.83      5.18      0.01         0.01
  YS02001762YS02001759        4.71      4.71      4.83      0.01         0.01
  YS02001765YS02001762        4.52      4.52      4.71      0.01         0.01
  YS02001770YS02001767        4.39      4.39      4.42      0.01         0.20
  YS02001774YS02001770        4.30      4.30      4.62      0.01         0.01
  YS02001779YS02001774        3.74      3.74      4.62      0.01         0.01
  YS02001649YS02001757        4.74      4.74      5.18      0.01         0.01
  YS02001767YS02001765        4.42      4.42      4.52      0.01         0.01
  YS02001788YS02001790        0.01      0.01      0.13      0.01         0.01
  YS02001790YS02001791        0.13      0.13      0.26      0.01         0.01
  YS02001791YS02001793        0.26      0.26      0.78      0.01         0.01
  YS02001629YS02163301        4.23      4.23      4.34      0.01         0.01
  YS02001619YS02001622        2.83      2.83      2.95      0.01         0.01
  YS02001622YS02001625        2.95      2.95      4.05      0.01         0.01
  YS02001625YS02001629        2.83      2.83      4.05      0.01         0.01
  YS02163301YS02001633        4.34      4.34      4.54      0.01         0.01
  YS02163601YS02164001        4.50      4.50      4.72      0.01         0.01
  YS02164001YS02001641        4.50      4.50      4.57      0.01         0.01
  YS02001641YS02001644        4.57      4.57      4.58      0.01         0.22
  YS02001647YS02001649        4.03      4.03      4.74      0.01         0.01
  YS02001633YS02163601        4.46      4.46      4.72      0.01         0.01
  YS02001644YS02001647        4.03      4.03      4.58      0.01         0.01
  YS02001745YS02001748        0.01      0.01      0.11      0.01         0.01
  YS02001748YS02001751        2.07      2.07      3.04      0.01         0.01
  YS02001751YS02001754        3.04      3.04      3.85      0.01         0.01
  YS02001754YS02001757        4.04      4.04      5.18      0.01         0.01
  YS02001652YS02001649        4.07      4.07      4.74      0.01         0.01
  YS02001655YS02001652        3.16      3.16      3.98      0.01         0.01
  YS02001658YS02001655        0.31      0.31      3.16      0.01         0.01
  YS02001661YS02001658        0.01      0.01      0.31      0.01         0.01
  YS02001793JiankangQianchi        0.60      0.60      3.58      0.01         0.01
  YS02001757CaochengTiaoxuchi        2.47      2.47      5.18      0.01         0.01
  
  
  ***************
  Pumping Summary
  ***************
  
  ---------------------------------------------------------------------------------------------------------
                                                  Min       Avg       Max     Total     Power    % Time Off
                        Percent   Number of      Flow      Flow      Flow    Volume     Usage    Pump Curve
  Pump                 Utilized   Start-Ups       LPS       LPS       LPS  10^6 ltr     Kw-hr    Low   High
  ---------------------------------------------------------------------------------------------------------
  CC-Pump-1               19.13           3      0.00    137.07    200.00     0.660      0.83    0.0    0.0
  CC-Pump-2                4.25           1      0.00    106.61    199.89     0.120      0.18    0.0    0.0
  JK-Pump-1               38.30           5      0.00    161.13    300.00     1.604     27.93    0.0    0.0
  JK-Pump-2               29.79           4      0.00    187.05    683.00     1.724     30.59    0.0   96.6
  XR-Pump-1               85.10           5      0.00     83.47     95.00     1.995     40.11    0.0    0.0
  XR-Pump-2               80.85           5      0.00     83.33     95.00     1.881     37.35    0.0    0.0
  XR-Pump-3               76.60           6      0.00     82.73     95.00     1.767     34.99    0.0    0.0
  XR-Pump-4               76.60           6      0.00     82.73     95.00     1.767     34.99    0.0    0.0
  
  
  ***************************
  Link Pollutant Load Summary
  ***************************
  
  ------------------------------------------------------------------------------------------
                                 COD            SS            TN            TP         NH4-N
  Link                            kg            kg            kg            kg            kg
  ------------------------------------------------------------------------------------------
  WS02003066WSF200           186.049       307.975         9.359         1.033         5.501
  WS02006287WS02006284        95.107       159.397         6.034         0.707         3.642
  WS02006284WS02006280        95.533       160.082         6.074         0.712         3.667
  WS02006280WS02006229        95.515       160.051         6.072         0.712         3.666
  WS02006229WS02006228       198.013       325.795         9.557         1.040         5.582
  WS02006256WS02006235        60.589        97.019         2.329         0.232         1.316
  WS02006253WS02006251        11.351        19.903         0.345         0.031         0.184
  WS02006252WS02006251        40.894        65.422         1.106         0.090         0.571
  WS02006251WS02006249        50.150        81.987         1.414         0.119         0.739
  WS02006249WS02006248        49.378        80.743         1.388         0.116         0.724
  WS02006248WS02006247        49.288        80.613         1.387         0.116         0.724
  WS02006247WS02006245        49.128        80.360         1.385         0.116         0.724
  WS02006245WS02006243        48.917        80.045         1.379         0.116         0.721
  WS02006243WS02006242        50.026        81.914         1.416         0.119         0.741
  WS02006242WS02006240        52.095        85.328         1.485         0.126         0.779
  WS02006240WS02006239        54.641        89.430         1.579         0.135         0.832
  WS02006239WS02006238        58.092        94.886         1.724         0.150         0.916
  WS02006238WS02006235        60.422        98.553         1.813         0.159         0.966
  WS02006235WS02006234       105.499       170.576         3.584         0.337         1.970
  WS02006234WS02006232       105.299       170.250         3.586         0.337         1.972
  WS02006232WS02006231       104.498       168.970         3.560         0.335         1.958
  WS02006231WS02006230       103.664       167.643         3.527         0.332         1.940
  WS02006230WS02006229       103.278       167.001         3.522         0.332         1.938
  WS02006228WS02006109       197.386       324.818         9.536         1.038         5.571
  WS02006116WS02004401       200.868       330.936        10.064         1.108         5.910
  WS02006115WS02006116       202.098       332.830        10.116         1.113         5.940
  WS02006113WS02006111       203.341       334.420        10.222         1.126         6.005
  WS02006112WS02006115       203.605       335.211        10.196         1.122         5.987
  WS02006111WS02006112       202.916       333.762        10.206         1.124         5.996
  WS02006110WS02006113       204.046       335.540        10.263         1.130         6.029
  WS02006109WS02006110       205.376       337.654        10.340         1.139         6.075
  WS02004411WS02004412       190.663       315.241         9.613         1.062         5.652
  WS02004401WS02004402       199.430       328.680         9.991         1.100         5.867
  WS02004413WS02003067       186.920       309.303         9.408         1.039         5.530
  WS02004412WS02004413       189.107       312.822         9.531         1.053         5.603
  WS02004410WS02004411       191.940       317.210         9.680         1.069         5.691
  WS02004409WS02004410       193.253       319.253         9.749         1.077         5.731
  WS02004407WS02004409       194.226       320.725         9.796         1.082         5.759
  WS02004406WS02004407       194.417       320.969         9.802         1.082         5.762
  WS02004405WS02004406       196.481       324.220         9.923         1.096         5.834
  WS02004404WS02004405       197.324       325.443         9.940         1.097         5.842
  WS02004403WS02004404       197.007       324.906         9.872         1.088         5.798
  WS02004402WS02004403       198.227       326.824         9.936         1.094         5.835
  WS02004139WS02001211      1356.420      2171.482       128.307        15.997        80.066
  WS02004138WS02004139      1364.763      2184.838       129.090        16.094        80.555
  WS02003067WS02003066       186.330       308.421         9.375         1.035         5.510
  WS02001213WS02003059      1383.709      2215.125       130.966        16.330        81.731
  WS02001212WS02001213      1393.207      2230.329       131.863        16.442        82.290
  WS02001211WS02001212      1398.384      2238.617       132.352        16.503        82.595
  WS02003072WS02003073      1662.285      2671.249       149.402        18.501        92.913
  WS02003069WS02003072      1670.083      2683.748       150.104        18.588        93.350
  WS02003060WS02003069      1673.841      2689.727       150.402        18.625        93.533
  WS02003059WS02003060      1378.170      2206.256       130.448        16.265        81.408
  HS02004901HS02004770         1.949         3.436         0.038         0.003         0.018
  HS02004876HS02004881         8.072        14.315         0.266         0.024         0.144
  HS02004870HS02004876         6.341        11.181         0.240         0.023         0.133
  HS02004842HS02004848         1.105         1.888         0.025         0.002         0.011
  HS02004837HS02004842         5.747         9.296         0.491         0.060         0.304
  HS02004830HS02004837        47.299        76.502         4.208         0.521         2.617
  HS02004824HS02004830        48.050        77.704         4.280         0.530         2.662
  HS02004817HS02004824        52.369        85.319         4.399         0.539         2.724
  HS02004770HS02004777         7.613        13.538         0.170         0.011         0.077
  HS02004799HS02004480        36.612        62.043         1.834         0.203         1.069
  HS02004792HS02004799        34.579        58.156         1.843         0.207         1.082
  HS02004788HS02004792        23.613        39.598         1.483         0.172         0.888
  HS02004785HS02004788         9.102        15.931         0.322         0.030         0.172
  HS02004777HS02004785         8.609        15.138         0.277         0.025         0.144
  HS02004480HS02004478        42.602        73.022         1.892         0.204         1.088
  HS02004479HS02004480        10.495        18.168         0.487         0.055         0.287
  HS02004862HS02004870         4.819         8.311         0.209         0.021         0.118
  HS02004848HS02004852         1.183         2.035         0.027         0.002         0.012
  HS02004856HS02004862         2.386         4.280         0.051         0.003         0.024
  HS02004852HS02004856         1.181         2.031         0.027         0.002         0.012
  HS02004802HS02004478        52.805        86.861         4.170         0.506         2.571
  HS02004478WS02006287        95.284       159.683         6.050         0.709         3.652
  HS02004817HS02004807        50.991        83.116         4.268         0.523         2.643
  HS02004807HS02004802        53.572        88.084         4.243         0.516         2.617
  YS02001759YS02001757        70.167       113.574         1.775         0.134         0.909
  YS02001762YS02001759        38.022        62.145         1.112         0.091         0.589
  YS02001765YS02001762        37.708        61.565         1.132         0.094         0.603
  YS02001770YS02001767        35.518        57.962         0.848         0.056         0.421
  YS02001774YS02001770         5.202         8.568         0.146         0.012         0.076
  YS02001779YS02001774         4.224         6.907         0.205         0.022         0.120
  YS02001649YS02001757       103.068       161.751         2.666         0.215         1.344
  YS02001767YS02001765        37.923        61.864         1.154         0.096         0.616
  YS02006561YS02001783       158.747       255.769         5.216         0.485         2.861
  YS02001783YS02001784       158.683       255.675         5.212         0.484         2.859
  YS02001784YS02001785       166.058       267.490         5.925         0.574         3.305
  YS02001788YS02001790       166.738       268.596         5.998         0.583         3.351
  YS02001790YS02001791       167.755       270.230         6.098         0.595         3.413
  YS02001791YS02001793       167.698       270.146         6.093         0.595         3.410
  YS02001910YS02001907        60.164        95.976         2.932         0.307         1.705
  YS02001786YS02001788       166.303       267.893         5.953         0.577         3.322
  YS02001915YS02001910        60.058        95.751         2.893         0.302         1.679
  YS02001918YS02001915        35.314        55.169         2.306         0.270         1.398
  YS02001923YS02001920        15.284        23.110         0.371         0.028         0.188
  YS02001926YS02001923        14.907        22.501         0.332         0.023         0.164
  YS02001929YS02001926        14.611        22.018         0.300         0.019         0.144
  YS02001920YS02001918        35.232        55.033         2.289         0.268         1.387
  YS02001629YS02163301        16.410        25.873         0.386         0.024         0.178
  YS02001619YS02001622        19.570        30.646         0.462         0.028         0.212
  YS02001622YS02001625        18.794        29.526         0.442         0.027         0.202
  YS02001625YS02001629        17.796        28.058         0.417         0.025         0.192
  YS02163301YS02001633        16.128        25.439         0.380         0.024         0.176
  YS02163601YS02164001        47.912        74.855         1.154         0.086         0.569
  YS02164001YS02001641        47.491        74.196         1.132         0.084         0.556
  YS02001641YS02001644        47.718        74.566         1.126         0.083         0.552
  YS02001647YS02001649        76.360       118.918         1.694         0.122         0.820
  YS02006553YS02006556       117.245       188.485         4.183         0.407         2.340
  YS02006556YS02006558       117.193       188.387         4.149         0.402         2.318
  YSB6556YSB1171               5.046         8.836         0.175         0.018         0.099
  YS02001907YS02006553       117.192       188.405         4.181         0.407         2.339
  YS02006558YS02006561       158.754       255.771         5.216         0.485         2.861
  YS02001633YS02163601        48.455        75.624         1.136         0.082         0.555
  YS02001644YS02001647        77.048       119.897         1.710         0.123         0.828
  YS02001745YS02001748        27.646        44.331         0.646         0.039         0.313
  YS02001748YS02001751        33.070        53.115         1.186         0.107         0.652
  YS02001751YS02001754        30.787        49.488         1.124         0.102         0.621
  YS02001754YS02001757        32.146        51.714         1.288         0.124         0.725
  YS02001882YS02001884         0.381         0.585         0.013         0.001         0.007
  YS02001884YS02001887         1.470         2.330         0.045         0.004         0.025
  YS02001890YS02001895        57.935        93.700         1.268         0.101         0.643
  YS02001895YS02001898        57.811        93.522         1.262         0.100         0.640
  YS02001898YS02001901        57.710        93.381         1.259         0.100         0.638
  YS02001901YS02001904        57.821        93.593         1.283         0.103         0.653
  YS02001904YS02001907        58.690        95.028         1.384         0.116         0.717
  YS02001887YS02001890        58.779        95.004         1.333         0.109         0.683
  YS02001652YS02001649        28.820        46.067         1.010         0.095         0.539
  YS02001655YS02001652        29.331        46.830         1.034         0.097         0.552
  YS02001658YS02001655        28.869        45.991         0.863         0.073         0.438
  YS02001661YS02001658        26.496        42.050         0.601         0.040         0.272
  YS02001664YS02001661        27.049        42.785         0.617         0.041         0.278
  YSB1154YSB6556               4.522         8.003         0.110         0.010         0.059
  YSB1174YSB1171               3.529         6.265         0.123         0.013         0.070
  YSB1171HS02004479           10.366        17.971         0.473         0.053         0.278
  HS02004881HS02006253         9.049        16.124         0.284         0.025         0.152
  YS02001793JiankangQianchi       168.817       271.931         6.161         0.603         3.451
  YS02001757CaochengTiaoxuchi       198.520       316.682         5.355         0.432         2.759
  WSF200WS02003060           185.791       307.619         9.351         1.033         5.496
  1                         1670.050      2683.839       150.273        18.613        93.463
  CC-Pump-1                   34.545        55.268         0.931         0.075         0.480
  CC-Pump-2                    6.275        10.038         0.169         0.014         0.087
  JK-Pump-1                   60.207        96.238         2.321         0.231         1.311
  JK-Pump-2                   65.764       106.632         2.308         0.223         1.285
  XR-Pump-1                  368.399       589.773        34.836         4.343        21.738
  XR-Pump-2                  346.744       555.091        32.804         4.090        20.470
  XR-Pump-3                  326.724       523.052        30.906         3.853        19.286
  XR-Pump-4                  326.724       523.052        30.906         3.853        19.286
  

  Analysis begun on:  Mon Jul 12 13:25:26 2021
  Analysis ended on:  Mon Jul 12 13:25:28 2021
  Total elapsed time: 00:00:02