
  EPA STORM WATER MANAGEMENT MODEL - VERSION 5.1 (Build 5.3.0.dev0)
  --------------------------------------------------------------

  WARNING 04: minimum elevation drop used for Conduit WS02004404WS02004405
  WARNING 03: negative offset ignored for Link YS02001904YS02001907
  
  *********************************************************
  NOTE: The summary statistics displayed in this report are
  based on results found at every computational time step,  
  not just on results from each reporting time step.
  *********************************************************
  
  ****************
  Analysis Options
  ****************
  Flow Units ............... LPS
  Process Models:
    Rainfall/Runoff ........ YES
    RDII ................... NO
    Snowmelt ............... NO
    Groundwater ............ NO
    Flow Routing ........... YES
    Ponding Allowed ........ NO
    Water Quality .......... YES
  Infiltration Method ...... HORTON
  Flow Routing Method ...... DYNWAVE
  Surcharge Method ......... EXTRAN
  Starting Date ............ 08/28/2015 08:00:00
  Ending Date .............. 08/28/2015 15:50:00
  Antecedent Dry Days ...... 8.0
  Report Time Step ......... 00:01:00
  Wet Time Step ............ 00:01:00
  Dry Time Step ............ 00:01:00
  Routing Time Step ........ 5.00 sec
  Variable Time Step ....... YES
  Maximum Trials ........... 8
  Number of Threads ........ 4
  Head Tolerance ........... 0.001500 m
  
  
  **************************        Volume         Depth
  Runoff Quantity Continuity     hectare-m            mm
  **************************     ---------       -------
  Total Precipitation ......         7.641        16.729
  Evaporation Loss .........         0.000         0.000
  Infiltration Loss ........         1.184         2.592
  Surface Runoff ...........         5.481        12.000
  Final Storage ............         0.977         2.139
  Continuity Error (%) .....        -0.016
  
  
  **************************           COD            SS            TN            TP         NH4-N
  Runoff Quality Continuity             kg            kg            kg            kg            kg
  **************************    ----------    ----------    ----------    ----------    ----------
  Initial Buildup ..........     41378.656     70582.865      1804.177       168.684      1032.807
  Surface Buildup ..........        30.344        63.217         2.449         0.220         1.402
  Wet Deposition ...........         0.000         0.000         0.000         0.000         0.000
  Sweeping Removal .........         0.000         0.000         0.000         0.000         0.000
  Infiltration Loss ........       127.934       247.015         2.452         0.174         1.174
  BMP Removal ..............         0.000         0.000         0.000         0.000         0.000
  Surface Runoff ...........      5553.100     10632.121       107.101         7.411        51.076
  Remaining Buildup ........     35725.917     59762.998      1697.031       161.316       981.940
  Continuity Error (%) .....         0.005         0.006         0.002         0.002         0.002
  
  
  **************************        Volume        Volume
  Flow Routing Continuity        hectare-m      10^6 ltr
  **************************     ---------     ---------
  Dry Weather Inflow .......         0.616         6.165
  Wet Weather Inflow .......         5.479        54.793
  Groundwater Inflow .......         0.000         0.000
  RDII Inflow ..............         0.000         0.000
  External Inflow ..........         0.102         1.024
  External Outflow .........         1.983        19.828
  Flooding Loss ............         3.762        37.616
  Evaporation Loss .........         0.000         0.000
  Exfiltration Loss ........         0.000         0.000
  Initial Stored Volume ....         0.076         0.761
  Final Stored Volume ......         0.637         6.370
  Continuity Error (%) .....        -1.708
  
  
  **************************           COD            SS            TN            TP         NH4-N
  Quality Routing Continuity            kg            kg            kg            kg            kg
  **************************    ----------    ----------    ----------    ----------    ----------
  Dry Weather Inflow .......      1541.201      2465.922       147.955        18.494        92.472
  Wet Weather Inflow .......      5552.141     10630.425       107.081         7.410        51.067
  Groundwater Inflow .......         0.000         0.000         0.000         0.000         0.000
  RDII Inflow ..............         0.000         0.000         0.000         0.000         0.000
  External Inflow ..........       183.418       293.469        17.608         2.201        11.005
  External Outflow .........      2467.901      4396.418       139.614        16.070        83.457
  Flooding Loss ............      4064.564      7672.475       103.807         9.027        54.457
  Exfiltration Loss ........         0.000         0.000         0.000         0.000         0.000
  Mass Reacted .............         0.000         0.000         0.000         0.000         0.000
  Initial Stored Mass ......         0.000         0.000         0.000         0.000         0.000
  Final Stored Mass ........       634.226      1137.389        25.777         2.698        14.774
  Continuity Error (%) .....         1.513         1.371         1.264         1.103         1.201
  
  
  *************************
  Highest Continuity Errors
  *************************
  Node HS02004842 (10.96%)
  Node YS02001884 (9.40%)
  Node JK-storage (-8.77%)
  Node HS02004817 (2.13%)
  Node YSB1171 (1.97%)
  
  
  ***************************
  Time-Step Critical Elements
  ***************************
  Link WS02006252WS02006251 (54.83%)
  Link WS02006280WS02006229 (10.83%)
  Link WS02006238WS02006235 (8.78%)
  Link YS02006556YS02006558 (5.17%)
  Link YS02001793JiankangQianchi (4.65%)
  
  
  ********************************
  Highest Flow Instability Indexes
  ********************************
  Link WS02006113WS02006111 (38)
  Link YS02163601YS02164001 (30)
  Link YS02163301YS02001633 (29)
  Link YS02001629YS02163301 (29)
  Link YS02001619YS02001622 (29)
  
  
  *************************
  Routing Time Step Summary
  *************************
  Minimum Time Step           :     0.50 sec
  Average Time Step           :     1.41 sec
  Maximum Time Step           :     5.00 sec
  Percent in Steady State     :    -0.00
  Average Iterations per Step :     3.83
  Percent Not Converging      :    15.05
  
  
  ***************************
  Subcatchment Runoff Summary
  ***************************
  
  ------------------------------------------------------------------------------------------------------------------------------
                            Total      Total      Total      Total     Imperv       Perv      Total       Total     Peak  Runoff
                           Precip      Runon       Evap      Infil     Runoff     Runoff     Runoff      Runoff   Runoff   Coeff
  Subcatchment                 mm         mm         mm         mm         mm         mm         mm    10^6 ltr      LPS
  ------------------------------------------------------------------------------------------------------------------------------
  sub0                      16.73       0.00       0.00       0.71      15.51       0.47      15.98        0.01     3.87   0.955
  sub1                      16.73       0.00       0.00       1.18      14.80       0.66      15.46        0.10    26.74   0.924
  sub2                      16.73       0.00       0.00       4.79      10.46       1.40      11.85        0.11    25.81   0.708
  sub3                      16.73       0.00       0.00       5.01      10.42       1.18      11.60        0.26    56.97   0.693
  sub4                      16.73       0.00       0.00       1.28      14.64       0.56      15.20        0.32    66.74   0.909
  sub5                      16.73       0.00       0.00       0.73      15.46       0.44      15.91        0.18    46.91   0.951
  sub7                      16.73       0.00       0.00       0.93      15.16       0.58      15.74        0.05    14.85   0.941
  sub8                      16.73       0.00       0.00       0.94      15.15       0.57      15.72        0.10    27.42   0.940
  sub9                      16.73       0.00       0.00       0.94      15.15       0.57      15.72        0.08    20.52   0.940
  sub10                     16.73       0.00       0.00       0.83      15.30       0.50      15.81        0.17    46.04   0.945
  sub11                     16.73       0.00       0.00       0.83      15.32       0.51      15.83        0.18    50.62   0.947
  sub12                     16.73       0.00       0.00       1.34      14.51       0.83      15.34        0.13    39.22   0.917
  sub14                     16.73       0.00       0.00       0.94      15.15       0.57      15.72        0.15    40.40   0.939
  sub15                     16.73       0.00       0.00       3.54      11.65       1.48      13.13        0.23    57.86   0.785
  sub16                     16.73       0.00       0.00       3.72      11.17       1.80      12.97        0.14    37.34   0.776
  sub17                     16.73       0.00       0.00       3.62      11.33       1.73      13.07        0.11    30.57   0.781
  sub22                     16.73       0.00       0.00       5.27       9.49       1.92      11.42        0.72   183.11   0.683
  sub23                     16.73       0.00       0.00       4.37      10.50       1.82      12.32        0.59   153.57   0.736
  sub60                     16.73       0.00       0.00       1.74      12.78       0.27      13.05        3.96   446.24   0.780
  sub61                     16.73       0.00       0.00       2.46      12.72       0.38      13.11        4.04   542.53   0.784
  sub62                     16.73       0.00       0.00       1.06      13.91       0.27      14.19        4.36   558.01   0.848
  sub63                     16.73       0.00       0.00       4.39      11.06       0.46      11.52        3.49   496.40   0.689
  sub64                     16.73       0.00       0.00       2.23      12.28       0.28      12.56        3.82   424.95   0.751
  sub65                     16.73       0.00       0.00       1.91      12.51       0.27      12.77        3.93   431.32   0.764
  sub66                     16.73       0.00       0.00       4.54      10.46       0.31      10.78        3.31   388.44   0.644
  sub67                     16.73       0.00       0.00       1.01      14.45       0.32      14.78        4.56   675.76   0.883
  sub68                     16.73       0.00       0.00       1.95      13.33       0.39      13.71        4.22   589.75   0.820
  sub69                     16.73       0.00       0.00       2.00      13.62       0.51      14.12        3.30   542.07   0.844
  sub70                     16.73      14.42       0.00       8.47      19.01       2.12      21.13        4.84   534.50   0.678
  sub71                     16.73       0.00       0.00       1.08      13.65       0.25      13.90        3.28   394.68   0.831
  sub72                     16.73       0.00       0.00       1.02      11.50       0.15      11.65        2.37   206.66   0.697
  1                         16.73      20.58       0.00       1.37      22.38       7.20      29.58        6.95   612.18   0.793
  2                         16.73       0.00       0.00       3.02       4.04       3.18       7.22        2.89   331.58   0.431
  
  
  ****************************
  Subcatchment Washoff Summary
  ****************************
  
  ------------------------------------------------------------------------------------------
                                 COD            SS            TN            TP         NH4-N
  Subcatchment                    kg            kg            kg            kg            kg
  ------------------------------------------------------------------------------------------
  sub0                         3.641         7.161         0.064         0.005         0.031
  sub1                        15.670        31.767         0.296         0.021         0.143
  sub2                        10.304        20.454         0.214         0.015         0.099
  sub3                        25.293        49.815         0.517         0.036         0.240
  sub4                        36.168        74.260         0.714         0.044         0.344
  sub5                        35.763        71.366         0.649         0.050         0.316
  sub7                         7.894        16.212         0.150         0.010         0.073
  sub8                        11.755        24.726         0.234         0.014         0.113
  sub9                        10.113        20.966         0.196         0.013         0.095
  sub10                       29.347        59.341         0.545         0.040         0.265
  sub11                       28.395        58.052         0.536         0.037         0.260
  sub12                       24.463        49.072         0.450         0.034         0.218
  sub14                       21.697        44.543         0.414         0.028         0.200
  sub15                       29.696        58.821         0.572         0.042         0.270
  sub16                       19.246        38.050         0.367         0.028         0.174
  sub17                       17.687        34.653         0.330         0.026         0.156
  sub22                       95.915       186.896         1.820         0.139         0.857
  sub23                       54.382       109.539         1.141         0.076         0.527
  sub60                      353.947       679.509         6.988         0.437         3.357
  sub61                      439.695       840.113         8.188         0.570         3.952
  sub62                      449.790       873.119         8.744         0.564         4.209
  sub63                      328.186       618.356         6.505         0.463         3.037
  sub64                      450.924       835.563         8.299         0.611         3.976
  sub65                      460.537       856.688         8.527         0.617         4.090
  sub66                      259.427       485.147         5.248         0.348         2.463
  sub67                      667.181      1281.068        12.075         0.900         5.853
  sub68                      479.473       924.467         9.153         0.628         4.389
  sub69                      429.286       835.450         8.068         0.576         3.873
  sub70                      758.301      1478.311        15.194         1.074         7.173
  sub71                      296.268       580.620         6.027         0.356         2.890
  sub72                      247.759       452.374         4.612         0.320         2.223
  1                          576.917      1130.968        11.723         0.829         5.484
  2                           65.566       118.435         1.802         0.109         0.773
  ------------------------------------------------------------------------------------------
  System                    6740.687     12945.882       130.363         9.060        62.122
  
  
  ******************
  Node Depth Summary
  ******************
  
  ---------------------------------------------------------------------------------
                                 Average  Maximum  Maximum  Time of Max    Reported
                                   Depth    Depth      HGL   Occurrence   Max Depth
  Node                 Type       Meters   Meters   Meters  days hr:min      Meters
  ---------------------------------------------------------------------------------
  WS02001211           JUNCTION     0.77     0.85     5.69     0  02:02        0.85
  WS02001212           JUNCTION     0.48     0.58     5.64     0  02:02        0.58
  WS02001213           JUNCTION     0.72     0.86     5.62     0  02:02        0.86
  WS02003069           JUNCTION     0.52     0.72     5.31     0  02:01        0.72
  WS02003072           JUNCTION     0.58     0.77     5.14     0  02:01        0.77
  WS02003073           JUNCTION     0.35     0.48     4.55     0  02:02        0.48
  WS02003060           JUNCTION     0.46     0.64     5.57     0  02:01        0.64
  WS02003066           JUNCTION     0.25     0.39     5.94     0  01:55        0.39
  WS02003059           JUNCTION     0.77     0.91     5.60     0  02:01        0.91
  WS02003067           JUNCTION     0.60     0.83     6.15     0  01:54        0.83
  WS02004401           JUNCTION     0.74     1.31     7.31     0  01:52        1.29
  WS02004402           JUNCTION     0.76     1.30     7.26     0  01:52        1.28
  WS02004403           JUNCTION     0.78     1.27     7.20     0  01:52        1.24
  WS02004404           JUNCTION     0.85     1.31     7.16     0  01:52        1.28
  WS02004406           JUNCTION     0.84     1.20     7.03     0  01:52        1.18
  WS02004409           JUNCTION     0.54     0.98     6.75     0  01:55        0.98
  WS02004410           JUNCTION     0.55     0.97     6.69     0  01:55        0.97
  WS02004411           JUNCTION     0.57     0.94     6.62     0  01:55        0.94
  WS02004412           JUNCTION     0.58     0.92     6.56     0  01:55        0.92
  WS02004413           JUNCTION     0.73     1.03     6.50     0  01:54        1.03
  WS02004405           JUNCTION     0.84     1.28     7.13     0  01:52        1.25
  WS02006109           JUNCTION     0.84     1.77     8.38     0  01:53        1.75
  WS02006110           JUNCTION     0.81     1.55     8.14     0  01:53        1.55
  WS02006111           JUNCTION     0.27     1.02     7.73     0  01:52        0.98
  WS02006112           JUNCTION     0.92     1.66     7.54     0  01:52        1.64
  WS02006113           JUNCTION     0.39     1.07     7.96     0  01:52        1.02
  WS02006115           JUNCTION     0.64     1.32     7.46     0  01:52        1.29
  WS02006116           JUNCTION     0.72     1.35     7.39     0  01:52        1.34
  WS02006230           JUNCTION     0.86     1.99     8.73     0  01:53        1.97
  WS02006231           JUNCTION     0.60     1.62     8.74     0  01:53        1.60
  WS02006232           JUNCTION     0.74     1.71     8.75     0  01:53        1.69
  WS02006234           JUNCTION     0.67     1.59     8.75     0  01:53        1.58
  WS02006235           JUNCTION     0.71     1.60     8.77     0  01:53        1.58
  WS02006238           JUNCTION     0.73     1.62     8.76     0  01:53        1.60
  WS02006240           JUNCTION     0.62     1.45     8.74     0  01:53        1.43
  WS02006242           JUNCTION     0.66     1.46     8.73     0  01:53        1.44
  WS02006243           JUNCTION     0.54     1.30     8.72     0  01:53        1.29
  WS02006245           JUNCTION     0.51     1.23     8.71     0  01:53        1.22
  WS02006247           JUNCTION     0.51     1.21     8.71     0  01:53        1.19
  WS02006248           JUNCTION     0.45     1.10     8.69     0  01:50        1.10
  WS02006249           JUNCTION     0.46     1.09     8.69     0  01:50        1.09
  WS02006239           JUNCTION     0.68     1.54     8.75     0  01:53        1.53
  WS02006251           JUNCTION     0.43     1.42     9.09     0  03:20        1.22
  WS02006252           JUNCTION     0.26     0.97     9.21     0  03:20        0.77
  WS02006253           JUNCTION     0.46     1.47     9.11     0  03:20        1.27
  WS02006256           JUNCTION     1.86     2.35     9.28     0  00:28        2.35
  WS02004138           JUNCTION     0.19     0.20     7.45     0  00:00        0.19
  WS02004139           JUNCTION     0.72     0.79     5.70     0  02:02        0.79
  WS02004407           JUNCTION     0.24     0.40     6.72     0  01:53        0.40
  WS02006228           JUNCTION     0.86     1.95     8.60     0  01:53        1.92
  WS02006229           JUNCTION     0.85     2.02     8.72     0  01:53        2.01
  WS02006280           JUNCTION     0.08     0.33     8.60     0  01:52        0.31
  WS02006284           JUNCTION     0.39     0.66     9.06     0  01:54        0.66
  WS02006287           JUNCTION     0.12     0.40     9.36     0  01:54        0.40
  WSF200               JUNCTION     0.24     0.44     5.68     0  01:55        0.44
  HS02004901           JUNCTION     0.14     0.38    10.21     0  01:53        0.38
  HS02004881           JUNCTION     0.01     0.05     9.08     0  01:54        0.05
  HS02004876           JUNCTION     0.05     0.17     9.20     0  01:54        0.17
  HS02004870           JUNCTION     0.02     0.10     9.38     0  01:54        0.10
  HS02004862           JUNCTION     0.03     0.11     9.50     0  01:55        0.11
  HS02004856           JUNCTION     0.08     0.15     9.58     0  01:54        0.15
  HS02004852           JUNCTION     0.02     0.08     9.59     0  01:55        0.08
  HS02004848           JUNCTION     0.02     0.07     9.67     0  01:54        0.07
  HS02004842           JUNCTION     0.34     0.40     9.67     0  01:54        0.40
  HS02004837           JUNCTION     0.03     0.09     9.67     0  01:54        0.09
  HS02004830           JUNCTION     0.05     0.11     9.58     0  01:55        0.11
  HS02004824           JUNCTION     0.03     0.15     9.55     0  01:54        0.15
  HS02004817           JUNCTION     0.46     0.71     9.56     0  01:54        0.71
  HS02004807           JUNCTION     0.14     0.38     9.55     0  01:55        0.38
  HS02004802           JUNCTION     0.18     0.41     9.54     0  01:55        0.41
  HS02004799           JUNCTION     0.15     0.48     9.69     0  01:53        0.48
  HS02004792           JUNCTION     0.05     0.22     9.75     0  01:53        0.22
  HS02004788           JUNCTION     0.04     0.16    10.06     0  01:53        0.16
  HS02004785           JUNCTION     0.06     0.25    10.15     0  01:53        0.25
  HS02004777           JUNCTION     0.17     0.40    10.20     0  01:53        0.40
  HS02004770           JUNCTION     0.14     0.37    10.21     0  01:53        0.37
  HS02004480           JUNCTION     0.10     0.39     9.64     0  01:53        0.39
  HS02004479           JUNCTION     0.14     0.43     9.64     0  01:53        0.43
  HS02004478           JUNCTION     0.08     0.29     9.52     0  01:54        0.29
  YS02001745           JUNCTION     0.78     0.97     8.49     0  03:00        0.97
  YS02001748           JUNCTION     1.18     1.63     8.70     0  01:47        1.40
  YS02001751           JUNCTION     1.36     1.70     8.58     0  01:47        1.59
  YS02001754           JUNCTION     1.61     1.86     8.47     0  02:54        1.85
  YS02001762           JUNCTION     1.81     2.06     8.46     0  02:57        2.05
  YS02001765           JUNCTION     1.76     2.00     8.45     0  02:57        2.00
  YS02001767           JUNCTION     1.73     1.96     8.45     0  02:57        1.95
  YS02001770           JUNCTION     1.72     1.94     8.43     0  02:58        1.93
  YS02001774           JUNCTION     1.78     1.99     8.42     0  02:54        1.98
  YS02001779           JUNCTION     1.53     1.68     8.37     0  01:51        1.68
  YS02001882           JUNCTION     0.73     1.83     8.55     0  01:48        1.63
  YS02001884           JUNCTION     0.82     1.93     8.54     0  01:48        1.73
  YS02001759           JUNCTION     1.85     2.10     8.46     0  02:58        2.09
  YS02001887           JUNCTION     0.90     1.93     8.47     0  01:48        1.81
  YS02001890           JUNCTION     0.93     1.81     8.32     0  01:48        1.81
  YS02001898           JUNCTION     0.69     1.57     8.31     0  01:51        1.56
  YS02001901           JUNCTION     0.81     1.68     8.29     0  01:51        1.67
  YS02001904           JUNCTION     0.78     1.64     8.27     0  01:51        1.63
  YS02001907           JUNCTION     1.11     1.96     8.25     0  01:51        1.96
  YS02001910           JUNCTION     0.91     1.85     8.36     0  01:51        1.79
  YS02001915           JUNCTION     0.71     1.70     8.42     0  01:51        1.63
  YS02001918           JUNCTION     0.45     1.48     8.54     0  01:51        1.36
  YS02001619           JUNCTION     1.32     1.57     8.49     0  01:45        1.48
  YS02001629           JUNCTION     1.66     1.85     8.40     0  01:46        1.85
  YS02001641           JUNCTION     1.76     1.94     8.37     0  02:00        1.93
  YS02001644           JUNCTION     1.76     1.92     8.35     0  01:48        1.92
  YS02001652           JUNCTION     1.62     2.05     8.65     0  03:51        1.85
  YS02001655           JUNCTION     1.39     1.98     8.83     0  03:51        1.65
  YS02001920           JUNCTION     0.54     1.62     8.63     0  01:51        1.46
  YS02001923           JUNCTION     0.36     1.42     8.68     0  01:51        1.26
  YS02001926           JUNCTION     0.38     1.38     8.82     0  01:51        1.13
  YS02001929           JUNCTION     0.24     0.98     8.68     0  01:52        0.96
  YS02001658           JUNCTION     1.12     1.86     9.01     0  03:51        1.45
  YS02001661           JUNCTION     0.89     1.88     9.29     0  03:51        1.29
  YS02001664           JUNCTION     0.41     0.57     8.50     0  04:06        0.56
  YS02001622           JUNCTION     1.34     1.56     8.47     0  01:45        1.50
  YS02001633           JUNCTION     1.76     1.95     8.40     0  01:49        1.94
  YS02001649           JUNCTION     1.82     2.05     8.44     0  02:30        2.05
  YS02001757           JUNCTION     1.94     2.20     8.46     0  02:57        2.20
  YS02001895           JUNCTION     0.69     1.57     8.31     0  01:59        1.56
  YS02001625           JUNCTION     1.62     1.78     8.38     0  01:45        1.78
  YS02163301           JUNCTION     1.69     1.89     8.41     0  01:46        1.88
  YS02163601           JUNCTION     1.80     1.99     8.39     0  02:05        1.98
  YS02164001           JUNCTION     1.74     1.92     8.38     0  01:49        1.91
  YS02001647           JUNCTION     1.60     1.80     8.41     0  04:06        1.79
  YSB1154              JUNCTION     0.28     0.58     9.64     0  01:53        0.58
  YSB6556              JUNCTION     0.17     0.47     9.64     0  01:53        0.47
  YSB1174              JUNCTION     0.23     0.53     9.64     0  01:53        0.53
  YSB1171              JUNCTION     0.43     0.74     9.64     0  01:53        0.74
  YS02006553           JUNCTION     1.11     1.97     8.25     0  02:03        1.97
  YS02006561           JUNCTION     0.43     1.12     7.78     0  01:49        1.11
  YS02006556           JUNCTION     1.08     1.93     8.24     0  02:07        1.93
  YS02006558           JUNCTION     1.12     1.98     8.24     0  02:10        1.97
  YS02001783           JUNCTION     0.67     1.62     7.76     0  01:45        1.56
  YS02001784           JUNCTION     0.67     1.54     7.61     0  01:49        1.53
  YS02001786           JUNCTION     0.59     1.43     7.46     0  01:45        1.37
  YS02001788           JUNCTION     0.50     1.36     7.33     0  01:45        1.25
  YS02001790           JUNCTION     0.61     1.73     7.37     0  01:44        1.40
  YS02001791           JUNCTION     0.55     1.50     6.97     0  01:44        1.49
  YS02001793           JUNCTION     0.74     2.30     7.14     0  01:42        1.84
  WSC                  OUTFALL      0.35     0.48     1.15     0  02:02        0.48
  JK-storage           STORAGE      2.99     5.80     6.60     0  01:44        5.80
  CC-storage           STORAGE      1.20     1.46     8.46     0  02:58        1.46
  XR-storage           STORAGE      7.02     7.72     5.72     0  02:06        7.72
  
  
  *******************
  Node Inflow Summary
  *******************
  
  -------------------------------------------------------------------------------------------------
                                  Maximum  Maximum                  Lateral       Total        Flow
                                  Lateral    Total  Time of Max      Inflow      Inflow     Balance
                                   Inflow   Inflow   Occurrence      Volume      Volume       Error
  Node                 Type           LPS      LPS  days hr:min    10^6 ltr    10^6 ltr     Percent
  -------------------------------------------------------------------------------------------------
  WS02001211           JUNCTION      7.35   390.06     0  02:26       0.207        10.3       0.384
  WS02001212           JUNCTION      0.00   392.70     0  02:26           0        10.2       0.229
  WS02001213           JUNCTION      0.00   394.87     0  02:26           0        10.2       0.261
  WS02003069           JUNCTION      0.32  1344.57     0  02:01     0.00902        19.9       0.137
  WS02003072           JUNCTION      0.00  1344.61     0  02:02           0        19.8       0.173
  WS02003073           JUNCTION      1.82  1346.78     0  02:02      0.0514        19.9       0.194
  WS02003060           JUNCTION     16.53  1344.32     0  02:01       0.466        19.9       0.129
  WS02003066           JUNCTION      0.00   958.34     0  01:55           0         9.3       0.028
  WS02003059           JUNCTION      0.00   397.44     0  02:25           0        10.2       0.374
  WS02003067           JUNCTION      0.00   958.01     0  01:55           0        9.31       0.066
  WS02004401           JUNCTION      0.00   971.12     0  01:53           0        9.45       0.133
  WS02004402           JUNCTION      0.00   970.91     0  01:53           0        9.44       0.134
  WS02004403           JUNCTION      0.00   971.42     0  01:53           0        9.43       0.128
  WS02004404           JUNCTION      0.16   972.20     0  01:53     0.00457        9.42       0.104
  WS02004406           JUNCTION      0.00   973.00     0  01:53           0         9.4       0.254
  WS02004409           JUNCTION      0.00   971.23     0  01:53           0        9.37       0.076
  WS02004410           JUNCTION      0.00   958.81     0  01:54           0        9.36       0.099
  WS02004411           JUNCTION      0.00   956.44     0  01:55           0        9.35       0.111
  WS02004412           JUNCTION      0.00   957.84     0  01:55           0        9.34       0.132
  WS02004413           JUNCTION      0.00   957.99     0  01:55           0        9.33       0.215
  WS02004405           JUNCTION      0.04   973.56     0  01:53     0.00107        9.41       0.155
  WS02006109           JUNCTION      1.23   939.69     0  01:53      0.0347         9.4       0.100
  WS02006110           JUNCTION      0.00   939.46     0  01:53           0        9.39       0.107
  WS02006111           JUNCTION      0.00   938.98     0  01:53           0        9.38       0.007
  WS02006112           JUNCTION     30.57   969.28     0  01:53       0.112        9.49       0.206
  WS02006113           JUNCTION      0.00   939.07     0  01:53           0        9.38       0.036
  WS02006115           JUNCTION      0.00   969.39     0  01:53           0        9.47       0.101
  WS02006116           JUNCTION      0.00   970.04     0  01:53           0        9.46       0.084
  WS02006230           JUNCTION     10.28   532.60     0  07:01        0.29        6.29       0.096
  WS02006231           JUNCTION      0.00   522.58     0  07:01           0        5.99      -0.075
  WS02006232           JUNCTION      0.00   522.41     0  07:01           0        5.99       0.113
  WS02006234           JUNCTION      0.00   522.60     0  07:00           0        5.99      -0.065
  WS02006235           JUNCTION      0.00   523.47     0  07:01           0        6.13       0.111
  WS02006238           JUNCTION      0.00   349.49     0  05:52           0        2.67      -0.008
  WS02006240           JUNCTION      0.00   356.56     0  05:51           0        2.56       0.034
  WS02006242           JUNCTION      0.00   361.24     0  05:51           0        2.51       0.044
  WS02006243           JUNCTION      0.00   366.64     0  05:51           0        2.46      -0.136
  WS02006245           JUNCTION      0.00   370.91     0  05:50           0        2.44       0.080
  WS02006247           JUNCTION      0.00   375.38     0  05:50           0        2.43       0.020
  WS02006248           JUNCTION      0.00   379.64     0  05:50           0        2.44      -0.056
  WS02006249           JUNCTION      0.00   443.51     0  03:20           0        2.54       0.071
  WS02006239           JUNCTION      0.00   351.34     0  05:51           0        2.62      -0.072
  WS02006251           JUNCTION      0.08   424.51     0  03:20     0.00217        2.58      -0.050
  WS02006252           JUNCTION      0.00   399.94     0  05:50           0        1.92       0.009
  WS02006253           JUNCTION      3.87   156.77     0  01:54      0.0129       0.651      -0.083
  WS02006256           JUNCTION      0.00   983.00     0  02:00           0        11.5       0.015
  WS02004138           JUNCTION      0.00   380.00     0  00:00           0        10.1       0.066
  WS02004139           JUNCTION      0.32   394.45     0  00:00     0.00905        10.1       0.444
  WS02004407           JUNCTION      0.00   973.74     0  01:53           0        9.37       0.031
  WS02006228           JUNCTION      0.00   938.39     0  01:53           0        9.37       0.059
  WS02006229           JUNCTION      0.00   990.13     0  01:52           0        9.39       0.115
  WS02006280           JUNCTION      0.00   736.11     0  01:54           0        3.11       0.010
  WS02006284           JUNCTION      0.10   735.85     0  01:54      0.0027        3.11       0.020
  WS02006287           JUNCTION      0.00   735.64     0  01:54           0        3.11       0.024
  WSF200               JUNCTION      0.00   958.43     0  01:56           0         9.3       0.022
  HS02004901           JUNCTION     37.34    37.34     0  01:51       0.136       0.136       1.311
  HS02004881           JUNCTION     14.85   153.29     0  01:54       0.053       0.601       0.087
  HS02004876           JUNCTION     26.74   139.07     0  01:54       0.103       0.549       0.099
  HS02004870           JUNCTION     27.42   112.65     0  01:54         0.1       0.446       0.025
  HS02004862           JUNCTION     26.01    86.18     0  01:54       0.116       0.346       0.050
  HS02004856           JUNCTION     20.52    60.23     0  01:54      0.0756       0.231       0.631
  HS02004852           JUNCTION      0.00    40.37     0  01:54           0       0.155       0.036
  HS02004848           JUNCTION     56.97    56.97     0  01:56       0.261       0.261       0.018
  HS02004842           JUNCTION      0.00    18.18     0  02:06           0       0.119      12.307
  HS02004837           JUNCTION     52.39    67.87     0  01:54       0.353       0.459       0.177
  HS02004830           JUNCTION      0.15    67.98     0  01:54     0.00423       0.449       0.275
  HS02004824           JUNCTION     66.79   134.67     0  01:56       0.318       0.767       0.071
  HS02004817           JUNCTION      0.60   136.83     0  01:57      0.0169       0.783       2.175
  HS02004807           JUNCTION     50.62   184.12     0  01:55       0.184       0.952       0.460
  HS02004802           JUNCTION      0.00   183.92     0  01:56           0        0.95       0.419
  HS02004799           JUNCTION     40.40   470.75     0  01:53        0.15        1.87       0.159
  HS02004792           JUNCTION    183.39   430.98     0  01:53       0.729        1.72       0.024
  HS02004788           JUNCTION     59.53   248.80     0  01:53       0.273       0.991       0.039
  HS02004785           JUNCTION      0.15   189.56     0  01:53     0.00423        0.72       0.069
  HS02004777           JUNCTION      0.03   189.71     0  01:52    0.000846        0.72       0.728
  HS02004770           JUNCTION    153.57   190.38     0  01:52       0.587       0.722       0.429
  HS02004480           JUNCTION      0.00   554.34     0  01:53           0        2.18       0.044
  HS02004479           JUNCTION      0.00    83.75     0  01:53           0       0.323       0.229
  HS02004478           JUNCTION      0.00   735.59     0  01:54           0        3.11       0.010
  YS02001745           JUNCTION    446.25   446.25     0  02:16        3.95        3.95       0.291
  YS02001748           JUNCTION      0.04   449.51     0  02:16     0.00127        3.94       0.582
  YS02001751           JUNCTION      0.01   450.03     0  02:16     0.00031        3.92       0.618
  YS02001754           JUNCTION      0.26   450.00     0  02:16     0.00733        3.91       0.628
  YS02001762           JUNCTION      0.00   435.14     0  01:55           0        2.36       0.901
  YS02001765           JUNCTION      0.00   434.95     0  01:55           0        2.36       1.039
  YS02001767           JUNCTION      0.54   435.00     0  01:55      0.0151        2.39       1.513
  YS02001770           JUNCTION    558.16   760.17     0  03:01        4.36        5.52       0.569
  YS02001774           JUNCTION      0.00   760.16     0  03:01           0        4.28       0.586
  YS02001779           JUNCTION      0.01   760.18     0  03:01    0.000141        4.25       0.364
  YS02001882           JUNCTION      0.00    65.19     0  01:48           0      0.0281       7.507
  YS02001884           JUNCTION      0.00    74.96     0  01:47           0      0.0652      10.370
  YS02001759           JUNCTION    542.57   877.48     0  01:56        4.04        5.22       0.441
  YS02001887           JUNCTION    676.21   676.95     0  02:14        4.57         4.6       0.189
  YS02001890           JUNCTION      0.00   677.44     0  02:13           0        4.56       0.203
  YS02001898           JUNCTION      0.00   525.15     0  01:51           0        4.27       0.069
  YS02001901           JUNCTION      0.00   525.58     0  01:51           0        4.27       0.153
  YS02001904           JUNCTION      0.00   526.88     0  01:51           0        4.26       0.137
  YS02001907           JUNCTION      0.00  1168.80     0  01:52           0        9.98       0.246
  YS02001910           JUNCTION      0.00   655.46     0  01:52           0        5.74       0.220
  YS02001915           JUNCTION    394.70   654.77     0  01:52        3.28        5.79       0.094
  YS02001918           JUNCTION      0.00   371.84     0  01:52           0        2.54       0.058
  YS02001619           JUNCTION    388.44   388.44     0  02:16         3.3         3.3       0.367
  YS02001629           JUNCTION      0.00   219.25     0  01:48           0        1.43       2.049
  YS02001641           JUNCTION      0.00   456.16     0  01:48           0        5.09       0.415
  YS02001644           JUNCTION    424.99  1606.89     0  02:58        3.82        15.3       0.174
  YS02001652           JUNCTION      0.00   519.29     0  02:12           0        3.44       0.673
  YS02001655           JUNCTION      0.15   518.69     0  02:12     0.00434        3.46       0.737
  YS02001920           JUNCTION      2.87   370.48     0  01:52      0.0809        2.52       0.119
  YS02001923           JUNCTION      0.04   300.18     0  01:53     0.00106        2.42       0.052
  YS02001926           JUNCTION      0.05   352.40     0  01:51     0.00147        2.39       0.121
  YS02001929           JUNCTION    206.66   206.66     0  03:01        2.37        2.38       0.024
  YS02001658           JUNCTION      0.00   517.76     0  02:12           0        3.48       0.709
  YS02001661           JUNCTION      0.00   746.85     0  01:57           0        3.69      -0.026
  YS02001664           JUNCTION    496.40   496.40     0  02:16        3.49        3.69       0.172
  YS02001622           JUNCTION      0.00   389.08     0  02:16           0        3.29       0.974
  YS02001633           JUNCTION    431.52   456.26     0  01:48        3.93        5.24       0.615
  YS02001649           JUNCTION      0.00  1006.39     0  01:49           0         8.3       0.449
  YS02001757           JUNCTION      0.00  2146.02     0  01:56           0          10       0.921
  YS02001895           JUNCTION      0.00   523.79     0  01:51           0        4.27       0.117
  YS02001625           JUNCTION      0.00   435.30     0  02:15           0        3.34       1.184
  YS02163301           JUNCTION      0.00   225.14     0  01:45           0        1.42       1.707
  YS02163601           JUNCTION      0.11   456.33     0  01:48      0.0031        5.11       0.590
  YS02164001           JUNCTION      0.00   456.15     0  01:48           0        5.09       0.393
  YS02001647           JUNCTION      0.00   846.70     0  03:03           0         7.5       0.380
  YSB1154              JUNCTION     46.91    46.91     0  01:52        0.18       0.181       0.805
  YSB6556              JUNCTION      0.00    46.63     0  01:52           0       0.182       0.696
  YSB1174              JUNCTION     39.22    39.22     0  01:50       0.134       0.134       0.962
  YSB1171              JUNCTION      0.00    84.02     0  01:52           0       0.322       2.012
  YS02006553           JUNCTION      0.00   718.18     0  03:35           0        7.29       0.216
  YS02006561           JUNCTION      0.00   982.57     0  02:12           0        11.5       0.007
  YS02006556           JUNCTION      0.00   718.27     0  03:35           0        7.29       0.153
  YS02006558           JUNCTION    590.63   983.71     0  02:13        4.24        11.5       0.042
  YS02001783           JUNCTION      0.00   982.69     0  02:13           0        11.5       0.018
  YS02001784           JUNCTION      1.06   983.73     0  02:15      0.0299        11.5       0.031
  YS02001786           JUNCTION      0.06   983.67     0  02:15     0.00159        11.5       0.029
  YS02001788           JUNCTION      0.07   983.65     0  02:14       0.002        11.5       0.019
  YS02001790           JUNCTION      0.15   983.83     0  02:15     0.00437        11.5       0.002
  YS02001791           JUNCTION      0.00   983.90     0  02:15           0        11.5       0.007
  YS02001793           JUNCTION      0.00   984.47     0  02:13           0        11.5      -0.016
  WSC                  OUTFALL       0.00  1347.46     0  02:02           0        19.8       0.000
  JK-storage           STORAGE       0.00   984.38     0  02:13           0        11.6      -8.066
  CC-storage           STORAGE       0.00  2146.41     0  01:55           0        6.06       1.085
  XR-storage           STORAGE    1054.62  1054.62     0  03:01        15.5        16.1      -0.003
  
  
  **********************
  Node Surcharge Summary
  **********************
  
  Surcharging occurs when water rises above the top of the highest conduit.
  ---------------------------------------------------------------------
                                               Max. Height   Min. Depth
                                   Hours       Above Crown    Below Rim
  Node                 Type      Surcharged         Meters       Meters
  ---------------------------------------------------------------------
  WS02004401           JUNCTION        0.95          0.315        1.345
  WS02004402           JUNCTION        0.98          0.300        1.440
  WS02004403           JUNCTION        0.99          0.271        1.759
  WS02004404           JUNCTION        1.23          0.315        2.465
  WS02004406           JUNCTION        1.09          0.204        2.246
  WS02004413           JUNCTION        0.42          0.032        2.168
  WS02004405           JUNCTION        1.12          0.283        2.517
  WS02006109           JUNCTION        3.06          0.945        0.875
  WS02006110           JUNCTION        1.84          0.642        1.208
  WS02006111           JUNCTION        0.34          0.209        1.661
  WS02006112           JUNCTION        2.23          0.660        1.020
  WS02006113           JUNCTION        0.37          0.270        1.660
  WS02006115           JUNCTION        0.76          0.311        1.939
  WS02006116           JUNCTION        0.81          0.293        1.997
  WS02006230           JUNCTION        1.45          0.906        0.664
  WS02006231           JUNCTION        1.75          0.907        0.623
  WS02006232           JUNCTION        3.05          1.007        0.473
  WS02006234           JUNCTION        2.43          0.873        0.367
  WS02006235           JUNCTION        2.76          0.892        0.398
  WS02006238           JUNCTION        2.81          0.898        0.532
  WS02006240           JUNCTION        2.04          0.735        0.655
  WS02006242           JUNCTION        2.10          0.730        0.090
  WS02006243           JUNCTION        1.68          0.586        0.184
  WS02006245           JUNCTION        1.51          0.518        0.332
  WS02006247           JUNCTION        1.50          0.495        0.265
  WS02006248           JUNCTION        1.37          0.380        0.000
  WS02006249           JUNCTION        1.39          0.390        0.000
  WS02006239           JUNCTION        2.27          0.798        0.492
  WS02006251           JUNCTION        0.44          0.392        0.788
  WS02006252           JUNCTION        1.33          0.571        0.529
  WS02006253           JUNCTION        0.71          0.431        2.049
  WS02006256           JUNCTION        7.04          2.050        0.000
  WS02006228           JUNCTION        3.01          1.115        1.085
  HS02004817           JUNCTION        0.15          0.011        1.729
  YS02001748           JUNCTION        6.04          0.545        0.645
  YS02001751           JUNCTION        6.09          0.698        0.502
  YS02001754           JUNCTION        6.14          0.813        0.337
  YS02001762           JUNCTION        6.19          1.061        0.089
  YS02001765           JUNCTION        6.18          1.003        0.097
  YS02001767           JUNCTION        6.18          0.961        0.069
  YS02001770           JUNCTION        6.18          0.909        0.011
  YS02001774           JUNCTION        6.19          0.993        0.057
  YS02001779           JUNCTION        6.13          0.680        0.000
  YS02001882           JUNCTION        1.80          0.830        0.000
  YS02001884           JUNCTION        1.82          0.867        0.003
  YS02001759           JUNCTION        6.20          1.098        0.112
  YS02001887           JUNCTION        1.87          0.878        0.072
  YS02001890           JUNCTION        1.89          0.760        0.000
  YS02001898           JUNCTION        1.78          0.541        0.199
  YS02001901           JUNCTION        1.85          0.677        0.193
  YS02001904           JUNCTION        1.84          0.639        0.211
  YS02001907           JUNCTION        2.39          0.950        0.000
  YS02001910           JUNCTION        1.93          0.852        0.248
  YS02001915           JUNCTION        1.80          0.705        0.295
  YS02001918           JUNCTION        1.65          0.476        0.334
  YS02001619           JUNCTION        6.09          0.566        0.044
  YS02001629           JUNCTION        6.08          0.470        0.000
  YS02001641           JUNCTION        6.18          0.935        0.165
  YS02001644           JUNCTION        6.19          0.920        0.000
  YS02001652           JUNCTION        6.15          1.022        0.108
  YS02001655           JUNCTION        6.10          0.977        0.223
  YS02001920           JUNCTION        1.68          0.617        0.523
  YS02001923           JUNCTION        0.01          0.207        0.613
  YS02001926           JUNCTION        0.01          0.378        0.522
  YS02001658           JUNCTION        6.05          0.864        0.436
  YS02001661           JUNCTION        0.11          0.815        0.575
  YS02001622           JUNCTION        6.10          0.563        0.057
  YS02001633           JUNCTION        6.17          0.927        0.133
  YS02001649           JUNCTION        6.19          1.050        0.000
  YS02001757           JUNCTION        6.23          1.199        0.011
  YS02001895           JUNCTION        1.79          0.567        0.183
  YS02001625           JUNCTION        6.15          0.780        0.000
  YS02163301           JUNCTION        6.17          0.891        0.139
  YS02163601           JUNCTION        6.20          0.989        0.091
  YS02164001           JUNCTION        6.17          0.917        0.183
  YS02001647           JUNCTION        6.15          0.799        0.101
  YS02006553           JUNCTION        2.47          0.971        0.219
  YS02006561           JUNCTION        1.69          0.323        0.827
  YS02006556           JUNCTION        2.10          0.893        0.457
  YS02006558           JUNCTION        2.07          0.878        0.522
  YS02001783           JUNCTION        1.93          0.822        0.778
  YS02001784           JUNCTION        1.91          0.743        0.747
  YS02001786           JUNCTION        1.86          0.628        0.802
  YS02001788           JUNCTION        1.80          0.556        0.924
  YS02001790           JUNCTION        2.78          0.925        0.232
  YS02001791           JUNCTION        2.86          0.698        1.222
  YS02001793           JUNCTION        3.10          1.305        1.295
  
  
  *********************
  Node Flooding Summary
  *********************
  
  Flooding refers to all water that overflows a node, whether it ponds or not.
  --------------------------------------------------------------------------
                                                             Total   Maximum
                                 Maximum   Time of Max       Flood    Ponded
                        Hours       Rate    Occurrence      Volume     Depth
  Node                 Flooded       LPS   days hr:min    10^6 ltr    Meters
  --------------------------------------------------------------------------
  WS02006248              0.21     65.53      0  01:54       0.022     0.000
  WS02006249              0.57    155.85      0  03:20       0.105     0.000
  WS02006256              4.11    828.81      0  02:00       7.928     0.000
  YS02001779              3.81    760.17      0  03:01       4.231     0.000
  YS02001882              0.01      7.25      0  01:48       0.000     0.000
  YS02001890              0.81    161.12      0  02:13       0.273     0.000
  YS02001907              1.53    715.42      0  02:16       2.680     0.000
  YS02001629              0.01     24.85      0  01:46       0.000     0.000
  YS02001644              5.76   1606.75      0  03:01      14.201     0.000
  YS02001649              0.18     42.08      0  03:01       0.012     0.000
  YS02001625              2.15    434.98      0  02:15       1.968     0.000
  JK-storage              0.98    579.89      0  01:49       1.042     0.000
  XR-storage              4.70    674.56      0  03:01       5.155     0.000
  
  
  **********************
  Storage Volume Summary
  **********************
  
  --------------------------------------------------------------------------------------------------
                         Average     Avg  Evap Exfil       Maximum     Max    Time of Max    Maximum
                          Volume    Pcnt  Pcnt  Pcnt        Volume    Pcnt     Occurrence    Outflow
  Storage Unit           1000 m3    Full  Loss  Loss       1000 m3    Full    days hr:min        LPS
  --------------------------------------------------------------------------------------------------
  JK-storage               0.150      52     0     0         0.291     100       0  01:44     983.00
  CC-storage               3.342      21     0     0         4.057      26       0  02:58     399.94
  XR-storage               0.842      91     0     0         0.926     100       0  02:06     380.00
  
  
  ***********************
  Outfall Loading Summary
  ***********************
  
  ---------------------------------------------------------------------------------------------------------------------------------
                         Flow       Avg       Max       Total         Total         Total         Total         Total         Total
                         Freq      Flow      Flow      Volume           COD            SS            TN            TP         NH4-N
  Outfall Node           Pcnt       LPS       LPS    10^6 ltr            kg            kg            kg            kg            kg
  ---------------------------------------------------------------------------------------------------------------------------------
  WSC                   99.99    777.60   1347.46      19.828      2467.935      4396.479       139.618        16.071        83.460
  ---------------------------------------------------------------------------------------------------------------------------------
  System                99.99    777.60   1347.46      19.828      2467.935      4396.479       139.618        16.071        83.460
  
  
  ********************
  Link Flow Summary
  ********************
  
  -----------------------------------------------------------------------------
                                 Maximum  Time of Max   Maximum    Max/    Max/
                                  |Flow|   Occurrence   |Veloc|    Full    Full
  Link                 Type          LPS  days hr:min     m/sec    Flow   Depth
  -----------------------------------------------------------------------------
  WS02003066WSF200     CONDUIT    958.43     0  01:56      3.01    0.16    0.33
  WS02006287WS02006284 CONDUIT    735.75     0  01:54      2.45    0.34    0.41
  WS02006284WS02006280 CONDUIT    736.11     0  01:54      2.68    0.31    0.38
  WS02006280WS02006229 CONDUIT    738.51     0  01:52      4.20    0.16    0.58
  WS02006229WS02006228 CONDUIT    938.39     0  01:53      1.87    3.11    1.00
  WS02006256WS02006235 CONDUIT    263.75     0  06:32      3.73    2.79    1.00
  WS02006253WS02006251 CONDUIT    169.89     0  01:51      0.74    0.51    1.00
  WS02006252WS02006251 CONDUIT    400.01     0  05:50      3.18    1.47    1.00
  WS02006251WS02006249 CONDUIT    443.51     0  03:20      1.15    1.28    1.00
  WS02006249WS02006248 CONDUIT    379.64     0  05:50      1.14    2.08    1.00
  WS02006248WS02006247 CONDUIT    375.38     0  05:50      1.11    0.82    1.00
  WS02006247WS02006245 CONDUIT    370.91     0  05:50      1.08    2.94    1.00
  WS02006245WS02006243 CONDUIT    366.64     0  05:51      1.09    1.08    1.00
  WS02006243WS02006242 CONDUIT    361.24     0  05:51      1.00    0.77    1.00
  WS02006242WS02006240 CONDUIT    356.56     0  05:51      0.97    1.42    1.00
  WS02006240WS02006239 CONDUIT    351.34     0  05:51      1.00    1.11    1.00
  WS02006239WS02006238 CONDUIT    349.49     0  05:52      0.95    1.12    1.00
  WS02006238WS02006235 CONDUIT    349.04     0  05:52      0.94    0.78    1.00
  WS02006235WS02006234 CONDUIT    522.60     0  07:00      1.36    5.51    1.00
  WS02006234WS02006232 CONDUIT    522.41     0  07:01      1.36    1.06    1.00
  WS02006232WS02006231 CONDUIT    522.58     0  07:01      1.36    1.10    1.00
  WS02006231WS02006230 CONDUIT    522.32     0  07:01      1.36    7.92    1.00
  WS02006230WS02006229 CONDUIT    533.26     0  07:00      1.39   11.87    1.00
  WS02006228WS02006109 CONDUIT    938.46     0  01:53      1.87    4.10    1.00
  WS02006116WS02004401 CONDUIT    971.12     0  01:53      1.24    1.34    1.00
  WS02006115WS02006116 CONDUIT    970.04     0  01:53      1.24    1.24    1.00
  WS02006113WS02006111 CONDUIT    938.98     0  01:53      2.63    1.13    1.00
  WS02006112WS02006115 CONDUIT    969.39     0  01:53      1.23    0.57    1.00
  WS02006111WS02006112 CONDUIT    939.29     0  01:53      1.87    0.45    1.00
  WS02006110WS02006113 CONDUIT    939.07     0  01:53      1.87    0.85    1.00
  WS02006109WS02006110 CONDUIT    939.46     0  01:53      1.87    1.81    1.00
  WS02004411WS02004412 CONDUIT    957.84     0  01:55      1.26    1.36    0.93
  WS02004401WS02004402 CONDUIT    970.91     0  01:53      1.24    1.17    1.00
  WS02004413WS02003067 CONDUIT    958.01     0  01:55      1.58    0.41    0.72
  WS02004412WS02004413 CONDUIT    957.99     0  01:55      1.24    0.64    0.96
  WS02004410WS02004411 CONDUIT    956.44     0  01:55      1.24    1.31    0.95
  WS02004409WS02004410 CONDUIT    958.81     0  01:54      1.24    1.24    0.97
  WS02004407WS02004409 CONDUIT    971.23     0  01:53      1.74    0.34    0.69
  WS02004406WS02004407 CONDUIT    973.74     0  01:53      1.65    0.44    0.70
  WS02004405WS02004406 CONDUIT    973.00     0  01:53      1.24    1.92    1.00
  WS02004404WS02004405 CONDUIT    973.52     0  01:53      1.24    9.54    1.00
  WS02004403WS02004404 CONDUIT    972.04     0  01:53      1.24    0.70    1.00
  WS02004402WS02004403 CONDUIT    971.42     0  01:53      1.24    1.40    1.00
  WS02004139WS02001211 CONDUIT    382.71     0  02:26      0.90    0.48    0.64
  WS02004138WS02004139 CONDUIT    394.13     0  00:00      3.62    0.08    0.47
  WS02003067WS02003066 CONDUIT    958.34     0  01:55      1.67    0.31    0.51
  WS02001213WS02003059 CONDUIT    397.44     0  02:25      0.89    0.66    0.88
  WS02001212WS02001213 CONDUIT    394.87     0  02:26      1.32    0.61    0.56
  WS02001211WS02001212 CONDUIT    392.70     0  02:26      0.78    0.30    0.72
  WS02003072WS02003073 CONDUIT   1344.96     0  02:02      1.97    2.90    0.58
  WS02003069WS02003072 CONDUIT   1344.61     0  02:02      1.82    0.65    0.62
  WS02003060WS02003069 CONDUIT   1344.25     0  02:01      2.03    0.53    0.57
  WS02003059WS02003060 CONDUIT    400.55     0  02:25      0.95    0.26    0.78
  HS02004901HS02004770 CONDUIT     36.84     0  01:52      0.10    0.14    0.54
  HS02004876HS02004881 CONDUIT    139.08     0  01:54      1.26    1.48    0.16
  HS02004870HS02004876 CONDUIT    112.62     0  01:54      0.85    0.07    0.19
  HS02004842HS02004848 CONDUIT     18.18     0  02:06      0.08    0.01    0.34
  HS02004837HS02004842 CONDUIT     18.64     0  02:07      0.42    0.01    0.35
  HS02004830HS02004837 CONDUIT     67.83     0  01:54      0.68    0.07    0.14
  HS02004824HS02004830 CONDUIT     68.03     0  01:56      0.62    0.09    0.18
  HS02004817HS02004824 CONDUIT    136.23     0  01:57      0.32    0.06    0.60
  HS02004770HS02004777 CONDUIT    189.68     0  01:52      0.49    0.35    0.55
  HS02004799HS02004480 CONDUIT    470.64     0  01:53      1.09    0.59    0.62
  HS02004792HS02004799 CONDUIT    430.88     0  01:53      1.22    0.26    0.50
  HS02004788HS02004792 CONDUIT    248.73     0  01:54      1.29    0.16    0.28
  HS02004785HS02004788 CONDUIT    189.53     0  01:53      0.92    1.43    0.30
  HS02004777HS02004785 CONDUIT    189.41     0  01:53      0.59    0.23    0.46
  HS02004480HS02004478 CONDUIT    554.37     0  01:53      1.59    2.33    0.50
  HS02004479HS02004480 CONDUIT     83.71     0  01:53      0.37    0.08    0.59
  HS02004862HS02004870 CONDUIT     86.18     0  01:55      0.82    0.09    0.15
  HS02004848HS02004852 CONDUIT     40.37     0  01:54      0.54    0.05    0.11
  HS02004856HS02004862 CONDUIT     60.18     0  01:54      0.61    0.06    0.14
  HS02004852HS02004856 CONDUIT     40.43     0  01:55      0.35    0.05    0.17
  HS02004802HS02004478 CONDUIT    184.70     0  01:57      0.53    0.16    0.50
  HS02004478WS02006287 CONDUIT    735.64     0  01:54      2.18    0.21    0.38
  HS02004817HS02004807 CONDUIT    137.03     0  01:57      0.26    0.08    0.77
  HS02004807HS02004802 CONDUIT    183.92     0  01:56      0.47    0.35    0.56
  YS02001759YS02001757 CONDUIT    877.18     0  01:56      1.12    0.62    1.00
  YS02001762YS02001759 CONDUIT    435.09     0  01:55      0.55    0.50    1.00
  YS02001765YS02001762 CONDUIT    435.14     0  01:55      0.55    0.41    1.00
  YS02001770YS02001767 CONDUIT    434.46     0  01:55      0.55    1.72    1.00
  YS02001774YS02001770 CONDUIT    760.16     0  03:01      0.97    0.49    1.00
  YS02001779YS02001774 CONDUIT    760.17     0  03:01      0.97    0.38    1.00
  YS02001649YS02001757 CONDUIT   1006.77     0  01:49      1.28    0.61    1.00
  YS02001767YS02001765 CONDUIT    434.95     0  01:55      0.55    0.55    1.00
  YS02006561YS02001783 CONDUIT    982.69     0  02:13      2.14    0.51    1.00
  YS02001783YS02001784 CONDUIT    982.67     0  02:15      1.95    1.35    1.00
  YS02001784YS02001785 CONDUIT    983.61     0  02:15      1.96    2.29    1.00
  YS02001788YS02001790 CONDUIT    983.67     0  02:15      2.44    0.72    1.00
  YS02001790YS02001791 CONDUIT    983.90     0  02:15      2.91    1.07    1.00
  YS02001791YS02001793 CONDUIT    984.47     0  02:13      5.77    0.42    1.00
  YS02001910YS02001907 CONDUIT    654.48     0  01:52      0.83    0.37    1.00
  YS02001786YS02001788 CONDUIT    983.58     0  02:14      2.31    1.90    1.00
  YS02001915YS02001910 CONDUIT    655.46     0  01:52      0.83    0.33    1.00
  YS02001918YS02001915 CONDUIT    374.40     0  01:52      0.48    0.21    1.00
  YS02001923YS02001920 CONDUIT    367.61     0  01:52      0.82    0.17    1.00
  YS02001926YS02001923 CONDUIT    315.78     0  01:51      0.92    0.45    1.00
  YS02001929YS02001926 CONDUIT    253.98     0  01:52      0.98    0.12    0.99
  YS02001920YS02001918 CONDUIT    371.84     0  01:52      0.77    0.36    1.00
  YS02001629YS02163301 CONDUIT    225.14     0  01:45      0.29    0.28    1.00
  YS02001619YS02001622 CONDUIT    389.08     0  02:16      0.74    0.57    1.00
  YS02001622YS02001625 CONDUIT    388.65     0  02:16      0.49    0.21    1.00
  YS02001625YS02001629 CONDUIT    219.25     0  01:48      0.29    0.10    1.00
  YS02163301YS02001633 CONDUIT    226.67     0  01:45      0.29    0.21    1.00
  YS02163601YS02164001 CONDUIT    456.15     0  01:48      0.58    0.40    1.00
  YS02164001YS02001641 CONDUIT    456.16     0  01:48      0.58    0.62    1.00
  YS02001641YS02001644 CONDUIT    455.75     0  01:48      0.58    1.47    1.00
  YS02001647YS02001649 CONDUIT    846.70     0  03:03      1.08    0.45    1.00
  YS02006553YS02006556 CONDUIT    718.27     0  03:35      0.91    0.61    1.00
  YS02006556YS02006558 CONDUIT    718.45     0  03:35      0.91    0.57    1.00
  YSB6556YSB1171       CONDUIT     46.62     0  01:54      0.14    0.05    0.84
  YS02001907YS02006553 CONDUIT    718.18     0  03:35      0.80    0.84    1.00
  YS02006558YS02006561 CONDUIT    982.57     0  02:12      3.48    2.17    1.00
  YS02001633YS02163601 CONDUIT    456.22     0  01:48      0.58    0.48    1.00
  YS02001644YS02001647 CONDUIT    846.70     0  03:03      1.08    0.50    1.00
  YS02001745YS02001748 CONDUIT    449.47     0  02:16      1.67    0.17    0.98
  YS02001748YS02001751 CONDUIT    450.02     0  02:16      1.21    0.23    1.00
  YS02001751YS02001754 CONDUIT    449.74     0  02:16      1.02    0.22    1.00
  YS02001754YS02001757 CONDUIT    449.79     0  02:16      0.57    0.18    1.00
  YS02001882YS02001884 CONDUIT     65.19     0  01:48      0.16    0.07    1.00
  YS02001884YS02001887 CONDUIT     74.96     0  01:47      0.12    0.10    1.00
  YS02001890YS02001895 CONDUIT    523.79     0  01:51      0.67    0.24    1.00
  YS02001895YS02001898 CONDUIT    525.15     0  01:51      0.67    0.91    1.00
  YS02001898YS02001901 CONDUIT    525.58     0  01:51      0.67    0.34    1.00
  YS02001901YS02001904 CONDUIT    526.88     0  01:51      0.67    0.82    1.00
  YS02001904YS02001907 CONDUIT    526.70     0  01:51      0.67    0.18    1.00
  YS02001887YS02001890 CONDUIT    677.44     0  02:13      0.86    1.16    1.00
  YS02001652YS02001649 CONDUIT    520.55     0  02:12      0.71    0.26    1.00
  YS02001655YS02001652 CONDUIT    519.29     0  02:12      1.09    0.25    1.00
  YS02001658YS02001655 CONDUIT    518.53     0  02:12      1.41    0.22    1.00
  YS02001661YS02001658 CONDUIT    517.76     0  02:12      1.78    0.20    1.00
  YS02001664YS02001661 CONDUIT    746.85     0  01:57      1.69    0.23    0.77
  YSB1154YSB6556       CONDUIT     46.63     0  01:52      0.16    0.08    0.75
  YSB1174YSB1171       CONDUIT     38.37     0  01:50      0.11    0.06    0.87
  YSB1171HS02004479    CONDUIT     83.75     0  01:53      0.54    0.06    0.70
  HS02004881HS02006253 CONDUIT    153.29     0  01:54      2.70    0.03    0.54
  YS02001793JiankangQianchi CONDUIT    984.38     0  02:13     16.64    0.08    1.00
  YS02001757CaochengTiaoxuchi CONDUIT   2146.41     0  01:55      3.55    0.94    1.00
  WSF200WS02003060     CONDUIT    958.78     0  01:55      1.98    0.21    0.45
  1                    CONDUIT   1347.46     0  02:02      3.60    0.47    0.48
  CC-Pump-1            PUMP       200.00     0  02:30              1.00
  CC-Pump-2            PUMP       199.94     0  05:50              1.00
  JK-Pump-1            PUMP       300.00     0  01:50              1.00
  JK-Pump-2            PUMP       683.00     0  02:00              1.00
  XR-Pump-1            PUMP        95.00     0  00:00              1.00
  XR-Pump-2            PUMP        95.00     0  00:00              1.00
  XR-Pump-3            PUMP        95.00     0  00:00              1.00
  XR-Pump-4            PUMP        95.00     0  00:00              1.00
  
  
  ***************************
  Flow Classification Summary
  ***************************
  
  -------------------------------------------------------------------------------------
                      Adjusted    ---------- Fraction of Time in Flow Class ---------- 
                       /Actual         Up    Down  Sub   Sup   Up    Down  Norm  Inlet 
  Conduit               Length    Dry  Dry   Dry   Crit  Crit  Crit  Crit  Ltd   Ctrl  
  -------------------------------------------------------------------------------------
  WS02003066WSF200        1.00   0.01  0.03  0.00  0.00  0.96  0.00  0.00  0.59  0.00
  WS02006287WS02006284    1.00   0.04  0.01  0.00  0.53  0.42  0.00  0.00  0.63  0.00
  WS02006284WS02006280    1.00   0.05  0.00  0.00  0.00  0.00  0.00  0.95  0.00  0.00
  WS02006280WS02006229    1.00   0.05  0.00  0.00  0.03  0.03  0.00  0.90  0.01  0.00
  WS02006229WS02006228    1.00   0.00  0.00  0.00  1.00  0.00  0.00  0.00  0.00  0.00
  WS02006256WS02006235    1.00   0.01  0.00  0.00  0.98  0.00  0.00  0.00  0.00  0.00
  WS02006253WS02006251    1.00   0.01  0.03  0.00  0.95  0.00  0.01  0.00  0.00  0.00
  WS02006252WS02006251    1.00   0.11  0.01  0.00  0.14  0.01  0.74  0.00  0.00  0.00
  WS02006251WS02006249    1.00   0.00  0.00  0.00  1.00  0.00  0.00  0.00  0.37  0.00
  WS02006249WS02006248    1.00   0.00  0.01  0.00  0.85  0.00  0.15  0.00  0.00  0.00
  WS02006248WS02006247    1.00   0.01  0.00  0.00  0.98  0.00  0.00  0.02  0.25  0.00
  WS02006247WS02006245    1.00   0.01  0.00  0.00  0.97  0.00  0.00  0.02  0.00  0.00
  WS02006245WS02006243    1.00   0.01  0.00  0.00  0.93  0.00  0.00  0.06  0.01  0.00
  WS02006243WS02006242    1.00   0.01  0.00  0.00  0.98  0.00  0.00  0.00  0.28  0.00
  WS02006242WS02006240    1.00   0.01  0.00  0.00  0.98  0.00  0.00  0.00  0.00  0.00
  WS02006240WS02006239    1.00   0.01  0.00  0.00  0.93  0.00  0.00  0.06  0.02  0.00
  WS02006239WS02006238    1.00   0.01  0.00  0.00  0.99  0.00  0.00  0.00  0.07  0.00
  WS02006238WS02006235    1.00   0.01  0.00  0.00  0.99  0.00  0.00  0.00  0.00  0.00
  WS02006235WS02006234    1.00   0.01  0.00  0.00  0.96  0.00  0.03  0.00  0.00  0.00
  WS02006234WS02006232    1.00   0.01  0.00  0.00  0.99  0.00  0.00  0.00  0.01  0.00
  WS02006232WS02006231    1.00   0.01  0.00  0.00  0.98  0.00  0.00  0.00  0.00  0.00
  WS02006231WS02006230    1.00   0.01  0.00  0.00  0.67  0.00  0.32  0.00  0.00  0.00
  WS02006230WS02006229    1.00   0.00  0.00  0.00  0.99  0.00  0.00  0.01  0.00  0.00
  WS02006228WS02006109    1.00   0.00  0.00  0.00  1.00  0.00  0.00  0.00  0.00  0.00
  WS02006116WS02004401    1.00   0.02  0.00  0.00  0.98  0.00  0.00  0.00  0.00  0.00
  WS02006115WS02006116    1.00   0.02  0.00  0.00  0.97  0.00  0.00  0.00  0.00  0.00
  WS02006113WS02006111    1.00   0.02  0.00  0.00  0.10  0.88  0.00  0.00  0.18  0.00
  WS02006112WS02006115    1.00   0.02  0.00  0.00  0.98  0.00  0.00  0.00  0.00  0.00
  WS02006111WS02006112    1.00   0.02  0.00  0.00  0.98  0.00  0.00  0.00  0.79  0.00
  WS02006110WS02006113    1.00   0.00  0.02  0.00  0.98  0.00  0.00  0.00  0.00  0.00
  WS02006109WS02006110    1.00   0.00  0.00  0.00  0.99  0.00  0.00  0.00  0.00  0.00
  WS02004411WS02004412    1.00   0.03  0.00  0.00  0.97  0.00  0.00  0.00  0.00  0.00
  WS02004401WS02004402    1.00   0.02  0.00  0.00  0.98  0.00  0.00  0.00  0.00  0.00
  WS02004413WS02003067    1.00   0.03  0.00  0.00  0.00  0.00  0.96  0.00  0.00  0.00
  WS02004412WS02004413    1.00   0.03  0.00  0.00  0.97  0.00  0.00  0.00  0.00  0.00
  WS02004410WS02004411    1.00   0.03  0.00  0.00  0.97  0.00  0.00  0.00  0.00  0.00
  WS02004409WS02004410    1.00   0.03  0.00  0.00  0.97  0.00  0.00  0.00  0.00  0.00
  WS02004407WS02004409    1.00   0.03  0.00  0.00  0.97  0.00  0.00  0.00  0.91  0.00
  WS02004406WS02004407    1.00   0.00  0.03  0.00  0.97  0.00  0.00  0.00  0.00  0.00
  WS02004405WS02004406    1.00   0.00  0.00  0.00  1.00  0.00  0.00  0.00  0.04  0.00
  WS02004404WS02004405    1.00   0.00  0.00  0.00  1.00  0.00  0.00  0.00  0.00  0.00
  WS02004403WS02004404    1.00   0.00  0.02  0.00  0.98  0.00  0.00  0.00  0.00  0.00
  WS02004402WS02004403    1.00   0.02  0.00  0.00  0.98  0.00  0.00  0.00  0.00  0.00
  WS02004139WS02001211    1.00   0.00  0.00  0.00  1.00  0.00  0.00  0.00  0.00  0.00
  WS02004138WS02004139    1.00   0.00  0.00  0.00  1.00  0.00  0.00  0.00  1.00  0.00
  WS02003067WS02003066    1.00   0.04  0.00  0.00  0.96  0.00  0.00  0.00  0.00  0.00
  WS02001213WS02003059    1.00   0.00  0.00  0.00  1.00  0.00  0.00  0.00  0.00  0.00
  WS02001212WS02001213    1.00   0.00  0.00  0.00  0.93  0.00  0.07  0.00  0.00  0.00
  WS02001211WS02001212    1.00   0.00  0.00  0.00  1.00  0.00  0.00  0.00  0.00  0.00
  WS02003072WS02003073    1.00   0.00  0.00  0.00  0.00  0.00  0.00  1.00  0.00  0.00
  WS02003069WS02003072    1.00   0.00  0.00  0.00  1.00  0.00  0.00  0.00  0.06  0.00
  WS02003060WS02003069    1.00   0.00  0.00  0.00  0.99  0.01  0.00  0.00  0.05  0.00
  WS02003059WS02003060    1.00   0.00  0.00  0.00  1.00  0.00  0.00  0.00  0.00  0.00
  HS02004901HS02004770    1.00   0.04  0.00  0.00  0.96  0.00  0.00  0.00  0.00  0.00
  HS02004876HS02004881    1.00   0.01  0.00  0.00  0.87  0.12  0.00  0.00  0.00  0.00
  HS02004870HS02004876    1.00   0.00  0.00  0.00  1.00  0.00  0.00  0.00  0.95  0.00
  HS02004842HS02004848    1.00   0.00  0.04  0.00  0.96  0.00  0.00  0.00  0.56  0.00
  HS02004837HS02004842    1.00   0.00  0.00  0.00  1.00  0.00  0.00  0.00  0.11  0.00
  HS02004830HS02004837    1.00   0.00  0.00  0.00  1.00  0.00  0.00  0.00  0.99  0.00
  HS02004824HS02004830    1.00   0.00  0.00  0.00  1.00  0.00  0.00  0.00  0.03  0.00
  HS02004817HS02004824    1.00   0.00  0.00  0.00  1.00  0.00  0.00  0.00  0.92  0.00
  HS02004770HS02004777    1.00   0.00  0.04  0.00  0.96  0.00  0.00  0.00  0.02  0.00
  HS02004799HS02004480    1.00   0.00  0.01  0.00  0.95  0.00  0.04  0.00  0.00  0.00
  HS02004792HS02004799    1.00   0.00  0.00  0.00  1.00  0.00  0.00  0.00  0.98  0.00
  HS02004788HS02004792    1.00   0.00  0.00  0.00  1.00  0.00  0.00  0.00  0.98  0.00
  HS02004785HS02004788    1.00   0.00  0.00  0.00  1.00  0.00  0.00  0.00  0.00  0.00
  HS02004777HS02004785    1.00   0.00  0.00  0.00  1.00  0.00  0.00  0.00  0.11  0.00
  HS02004480HS02004478    1.00   0.05  0.00  0.00  0.62  0.00  0.00  0.34  0.00  0.00
  HS02004479HS02004480    1.00   0.01  0.00  0.00  0.99  0.00  0.00  0.00  0.11  0.00
  HS02004862HS02004870    1.00   0.00  0.00  0.00  1.00  0.00  0.00  0.00  0.03  0.00
  HS02004848HS02004852    1.00   0.04  0.00  0.00  0.96  0.00  0.00  0.00  0.79  0.00
  HS02004856HS02004862    1.00   0.00  0.05  0.00  0.95  0.00  0.00  0.00  0.84  0.00
  HS02004852HS02004856    1.00   0.04  0.00  0.00  0.95  0.00  0.00  0.00  0.77  0.00
  HS02004802HS02004478    1.00   0.04  0.00  0.00  0.95  0.00  0.00  0.00  0.02  0.00
  HS02004478WS02006287    1.00   0.05  0.00  0.00  0.69  0.26  0.00  0.00  0.62  0.00
  HS02004817HS02004807    1.00   0.00  0.04  0.00  0.96  0.00  0.00  0.00  0.01  0.00
  HS02004807HS02004802    1.00   0.04  0.00  0.00  0.95  0.00  0.00  0.00  0.00  0.00
  YS02001759YS02001757    1.00   0.00  0.00  0.00  1.00  0.00  0.00  0.00  0.15  0.00
  YS02001762YS02001759    1.00   0.00  0.00  0.00  1.00  0.00  0.00  0.00  0.02  0.00
  YS02001765YS02001762    1.00   0.00  0.00  0.00  1.00  0.00  0.00  0.00  0.13  0.00
  YS02001770YS02001767    1.00   0.00  0.00  0.00  1.00  0.00  0.00  0.00  0.00  0.00
  YS02001774YS02001770    1.00   0.00  0.04  0.00  0.95  0.00  0.00  0.00  0.02  0.00
  YS02001779YS02001774    1.00   0.00  0.00  0.00  1.00  0.00  0.00  0.00  0.17  0.00
  YS02001649YS02001757    1.00   0.00  0.00  0.00  1.00  0.00  0.00  0.00  0.15  0.00
  YS02001767YS02001765    1.00   0.00  0.00  0.00  1.00  0.00  0.00  0.00  0.00  0.00
  YS02006561YS02001783    1.00   0.06  0.00  0.00  0.42  0.53  0.00  0.00  0.45  0.00
  YS02001783YS02001784    1.00   0.00  0.06  0.00  0.94  0.00  0.00  0.00  0.00  0.00
  YS02001784YS02001785    1.00   0.00  0.00  0.00  1.00  0.00  0.00  0.00  0.16  0.00
  YS02001788YS02001790    1.00   0.00  0.00  0.00  0.44  0.56  0.00  0.00  0.34  0.00
  YS02001790YS02001791    1.00   0.00  0.00  0.00  0.39  0.61  0.00  0.00  0.39  0.00
  YS02001791YS02001793    1.00   0.00  0.00  0.00  0.41  0.59  0.00  0.00  0.02  0.00
  YS02001910YS02001907    1.00   0.00  0.00  0.00  0.99  0.00  0.00  0.01  0.12  0.00
  YS02001786YS02001788    1.00   0.00  0.00  0.00  0.43  0.57  0.00  0.00  0.00  0.00
  YS02001915YS02001910    1.00   0.00  0.00  0.00  0.99  0.01  0.00  0.00  0.13  0.00
  YS02001918YS02001915    1.00   0.00  0.00  0.00  0.99  0.00  0.00  0.00  0.50  0.00
  YS02001923YS02001920    1.00   0.00  0.00  0.00  1.00  0.00  0.00  0.00  0.74  0.00
  YS02001926YS02001923    1.00   0.00  0.03  0.00  0.29  0.00  0.69  0.00  0.00  0.00
  YS02001929YS02001926    1.00   0.00  0.04  0.00  0.96  0.00  0.00  0.00  0.65  0.00
  YS02001920YS02001918    1.00   0.00  0.00  0.00  1.00  0.00  0.00  0.00  0.00  0.00
  YS02001629YS02163301    1.00   0.05  0.00  0.00  0.95  0.00  0.00  0.00  0.00  0.00
  YS02001619YS02001622    1.00   0.04  0.00  0.00  0.96  0.00  0.00  0.00  0.00  0.00
  YS02001622YS02001625    1.00   0.04  0.00  0.00  0.95  0.00  0.00  0.00  0.03  0.00
  YS02001625YS02001629    1.00   0.04  0.01  0.00  0.93  0.00  0.02  0.00  0.00  0.00
  YS02163301YS02001633    1.00   0.00  0.05  0.00  0.95  0.00  0.00  0.00  0.00  0.00
  YS02163601YS02164001    1.00   0.00  0.03  0.00  0.97  0.00  0.00  0.00  0.00  0.00
  YS02164001YS02001641    1.00   0.00  0.03  0.00  0.97  0.00  0.00  0.00  0.06  0.00
  YS02001641YS02001644    1.00   0.00  0.00  0.00  1.00  0.00  0.00  0.00  0.00  0.00
  YS02001647YS02001649    1.00   0.00  0.05  0.00  0.95  0.00  0.00  0.00  0.01  0.00
  YS02006553YS02006556    1.00   0.00  0.00  0.00  1.00  0.00  0.00  0.00  0.03  0.00
  YS02006556YS02006558    1.00   0.00  0.00  0.00  1.00  0.00  0.00  0.00  0.00  0.00
  YSB6556YSB1171          1.00   0.01  0.03  0.00  0.96  0.00  0.00  0.00  0.00  0.00
  YS02001907YS02006553    1.00   0.00  0.01  0.00  0.99  0.00  0.00  0.00  0.00  0.00
  YS02006558YS02006561    1.00   0.06  0.00  0.00  0.29  0.65  0.00  0.00  0.46  0.00
  YS02001633YS02163601    1.00   0.00  0.00  0.00  1.00  0.00  0.00  0.00  0.15  0.00
  YS02001644YS02001647    1.00   0.00  0.05  0.00  0.95  0.00  0.00  0.00  0.00  0.00
  YS02001745YS02001748    1.00   0.00  0.00  0.00  0.91  0.00  0.00  0.08  0.01  0.00
  YS02001748YS02001751    1.00   0.00  0.00  0.00  0.97  0.03  0.00  0.00  0.14  0.00
  YS02001751YS02001754    1.00   0.00  0.00  0.00  0.94  0.00  0.00  0.06  0.01  0.00
  YS02001754YS02001757    1.00   0.00  0.00  0.00  1.00  0.00  0.00  0.00  0.17  0.00
  YS02001882YS02001884    1.00   0.05  0.00  0.00  0.95  0.00  0.00  0.00  0.00  0.00
  YS02001884YS02001887    1.00   0.02  0.02  0.00  0.96  0.00  0.00  0.00  0.00  0.00
  YS02001890YS02001895    1.00   0.00  0.05  0.00  0.95  0.00  0.00  0.00  0.00  0.00
  YS02001895YS02001898    1.00   0.05  0.00  0.00  0.94  0.00  0.01  0.00  0.00  0.00
  YS02001898YS02001901    1.00   0.05  0.00  0.00  0.95  0.00  0.00  0.00  0.01  0.00
  YS02001901YS02001904    1.00   0.05  0.00  0.00  0.95  0.00  0.00  0.00  0.00  0.00
  YS02001904YS02001907    1.00   0.00  0.05  0.00  0.95  0.00  0.00  0.00  0.00  0.00
  YS02001887YS02001890    1.00   0.00  0.00  0.00  0.99  0.00  0.01  0.00  0.00  0.00
  YS02001652YS02001649    1.00   0.00  0.00  0.00  1.00  0.00  0.00  0.00  0.15  0.00
  YS02001655YS02001652    1.00   0.00  0.00  0.00  0.94  0.00  0.00  0.06  0.01  0.00
  YS02001658YS02001655    1.00   0.00  0.05  0.00  0.93  0.03  0.00  0.00  0.02  0.00
  YS02001661YS02001658    1.00   0.05  0.00  0.00  0.91  0.04  0.00  0.00  0.01  0.00
  YS02001664YS02001661    1.00   0.04  0.00  0.00  0.92  0.04  0.00  0.00  0.10  0.00
  YSB1154YSB6556          1.00   0.04  0.00  0.00  0.96  0.00  0.00  0.00  0.01  0.00
  YSB1174YSB1171          1.00   0.01  0.02  0.00  0.97  0.00  0.00  0.00  0.00  0.00
  YSB1171HS02004479       1.00   0.01  0.00  0.00  0.98  0.00  0.00  0.00  0.10  0.00
  HS02004881HS02006253    1.00   0.02  0.00  0.00  0.58  0.03  0.00  0.38  0.38  0.00
  YS02001793JiankangQianchi    1.00   0.00  0.00  0.00  0.70  0.30  0.00  0.00  0.37  0.00
  YS02001757CaochengTiaoxuchi    1.00   0.00  0.07  0.00  0.90  0.03  0.00  0.00  0.00  0.00
  WSF200WS02003060        1.00   0.00  0.01  0.00  0.97  0.02  0.00  0.00  0.49  0.00
  1                       1.00   0.00  0.00  0.00  0.00  1.00  0.00  0.00  0.61  0.00
  
  
  *************************
  Conduit Surcharge Summary
  *************************
  
  ----------------------------------------------------------------------------
                                                           Hours        Hours 
                         --------- Hours Full --------   Above Full   Capacity
  Conduit                Both Ends  Upstream  Dnstream   Normal Flow   Limited
  ----------------------------------------------------------------------------
  WS02006229WS02006228        3.01      3.11      3.01      3.98         3.01
  WS02006256WS02006235        5.29      5.29      7.04      4.59         0.01
  WS02006253WS02006251        1.32      1.32      1.35      0.01         0.01
  WS02006252WS02006251        0.59      0.59      1.33      0.58         0.01
  WS02006251WS02006249        1.33      1.33      1.39      0.17         0.07
  WS02006249WS02006248        1.36      1.37      1.39      1.71         0.01
  WS02006248WS02006247        1.39      1.39      1.50      0.01         0.01
  WS02006247WS02006245        1.50      1.53      1.51      2.28         1.20
  WS02006245WS02006243        1.53      1.53      1.68      0.06         0.04
  WS02006243WS02006242        1.74      1.74      2.10      0.01         0.01
  WS02006242WS02006240        2.04      2.04      2.25      0.75         0.01
  WS02006240WS02006239        2.08      2.08      2.27      0.19         0.12
  WS02006239WS02006238        2.58      2.58      2.80      0.23         0.16
  WS02006238WS02006235        2.80      2.80      2.98      0.01         0.03
  WS02006235WS02006234        2.43      2.43      2.75      5.07         0.02
  WS02006234WS02006232        2.60      2.60      3.05      0.24         0.24
  WS02006232WS02006231        1.75      1.75      3.05      0.35         0.01
  WS02006231WS02006230        1.45      1.45      1.85      5.25         0.01
[...]
  YS02001779YS02001774        6.13      6.13      6.19      0.01         0.01
  YS02001649YS02001757        6.19      6.19      6.23      0.01         0.01
  YS02001767YS02001765        6.18      6.18      6.18      0.01         0.01
  YS02006561YS02001783        1.69      1.69      1.93      0.01         0.01
  YS02001783YS02001784        1.91      1.93      1.91      2.12         1.90
  YS02001784YS02001785        1.86      1.91      1.86      2.91         1.85
  YS02001788YS02001790        1.80      1.80      2.78      0.01         0.01
  YS02001790YS02001791        2.77      2.78      2.86      1.82         1.80
  YS02001791YS02001793        2.86      2.86      3.18      0.01         0.01
  YS02001910YS02001907        1.93      1.93      2.39      0.01         0.01
  YS02001786YS02001788        1.80      1.85      1.80      2.53         1.80
  YS02001915YS02001910        1.80      1.80      1.93      0.01         0.01
  YS02001918YS02001915        1.65      1.65      1.80      0.01         0.01
  YS02001923YS02001920        1.49      1.49      1.68      0.01         0.01
  YS02001926YS02001923        0.01      0.01      0.01      0.01         0.01
  YS02001929YS02001926        0.01      0.01      0.01      0.01         0.01
  YS02001920YS02001918        1.65      1.65      1.68      0.01         0.01
  YS02001629YS02163301        6.16      6.16      6.17      0.01         0.01
  YS02001619YS02001622        6.09      6.09      6.10      0.01         0.02
  YS02001622YS02001625        6.10      6.10      6.15      0.01         0.01
  YS02001625YS02001629        6.08      6.08      6.15      0.01         0.01
  YS02163301YS02001633        6.17      6.17      6.18      0.01         0.01
  YS02163601YS02164001        6.17      6.17      6.20      0.01         0.01
  YS02164001YS02001641        6.17      6.17      6.18      0.01         0.02
  YS02001641YS02001644        6.18      6.18      6.19      2.38         2.43
  YS02001647YS02001649        6.15      6.15      6.19      0.01         0.01
  YS02006553YS02006556        2.10      2.10      2.47      0.01         0.01
  YS02006556YS02006558        2.21      2.21      2.54      0.01         0.01
  YSB6556YSB1171              0.01      0.01      0.30      0.01         0.01
  YS02001907YS02006553        2.94      2.94      3.16      0.01         0.01
  YS02006558YS02006561        1.78      2.07      1.78      2.77         1.78
  YS02001633YS02163601        6.17      6.17      6.20      0.01         0.01
  YS02001644YS02001647        6.15      6.15      6.19      0.01         0.01
  YS02001745YS02001748        0.01      0.01      6.04      0.01         0.01
  YS02001748YS02001751        6.05      6.05      6.09      0.01         0.01
  YS02001751YS02001754        6.09      6.09      6.14      0.01         0.01
  YS02001754YS02001757        6.15      6.15      6.23      0.01         0.01
  YS02001882YS02001884        1.80      1.80      1.82      0.01         0.01
  YS02001884YS02001887        1.85      1.85      1.87      0.01         0.01
  YS02001890YS02001895        1.79      1.79      1.94      0.01         0.01
  YS02001895YS02001898        1.78      1.78      1.79      0.01         0.01
  YS02001898YS02001901        1.79      1.79      1.85      0.01         0.01
  YS02001901YS02001904        1.84      1.84      1.85      0.01         0.01
  YS02001904YS02001907        1.84      1.84      2.50      0.01         0.01
  YS02001887YS02001890        1.89      1.89      1.92      0.52         0.01
  YS02001652YS02001649        6.16      6.16      6.19      0.01         0.01
  YS02001655YS02001652        6.10      6.10      6.15      0.01         0.01
  YS02001658YS02001655        6.05      6.05      6.10      0.01         0.01
  YS02001661YS02001658        0.10      0.10      6.05      0.01         0.01
  YS02001664YS02001661        0.01      0.01      1.73      0.01         0.01
  HS02004881HS02006253        0.01      0.01      0.71      0.01         0.01
  YS02001793JiankangQianchi        3.10      3.10      4.94      0.01         0.01
  YS02001757CaochengTiaoxuchi        5.75      5.75      6.23      0.01         0.01
  
  
  ***************
  Pumping Summary
  ***************
  
  ---------------------------------------------------------------------------------------------------------
                                                  Min       Avg       Max     Total     Power    % Time Off
                        Percent   Number of      Flow      Flow      Flow    Volume     Usage    Pump Curve
  Pump                 Utilized   Start-Ups       LPS       LPS       LPS  10^6 ltr     Kw-hr    Low   High
  ---------------------------------------------------------------------------------------------------------
  CC-Pump-1               38.30           5      0.00    142.42    200.00     1.440      1.12    0.0    0.0
  CC-Pump-2               17.03           3      0.00     94.41    199.94     0.480      0.50    0.0    0.0
  JK-Pump-1               61.70           4      0.00    246.56    300.00     4.094     53.72    0.0    0.0
  JK-Pump-2               55.31           3      0.00    493.98    683.00     7.418     87.42    0.0   97.7
  XR-Pump-1               97.87           2      0.00     94.40     95.00     2.565     20.28    0.0    0.0
  XR-Pump-2               97.87           3      0.00     92.43     95.00     2.508     19.18    0.0    0.0
  XR-Pump-3               97.87           3      0.00     92.43     95.00     2.508     19.18    0.0    0.0
  XR-Pump-4               97.87           3      0.00     92.43     95.00     2.508     19.18    0.0    0.0
  
  
  ***************************
  Link Pollutant Load Summary
  ***************************
  
  ------------------------------------------------------------------------------------------
                                 COD            SS            TN            TP         NH4-N
  Link                            kg            kg            kg            kg            kg
  ------------------------------------------------------------------------------------------
  WS02003066WSF200           971.007      1875.514        23.712         2.017        12.282
  WS02006287WS02006284       438.042       854.444        12.584         1.181         6.762
  WS02006284WS02006280       438.533       855.229        12.632         1.187         6.791
  WS02006280WS02006229       438.537       855.270        12.630         1.186         6.790
  WS02006229WS02006228       951.960      1839.934        22.956         1.933        11.848
  WS02006256WS02006235       246.774       466.815         5.164         0.387         2.570
  WS02006253WS02006251        84.528       170.123         1.782         0.130         0.873
  WS02006252WS02006251       210.523       405.368         3.981         0.275         1.914
  WS02006251WS02006249       287.649       561.408         5.617         0.395         2.717
  WS02006249WS02006248       272.312       529.464         5.326         0.375         2.577
  WS02006248WS02006247       269.875       524.171         5.284         0.372         2.558
  WS02006247WS02006245       270.738       525.871         5.302         0.373         2.566
  WS02006245WS02006243       271.992       528.368         5.326         0.375         2.578
  WS02006243WS02006242       274.226       532.402         5.384         0.380         2.608
  WS02006242WS02006240       276.714       536.535         5.440         0.384         2.636
  WS02006240WS02006239       279.309       540.696         5.513         0.390         2.675
  WS02006239WS02006238       282.161       545.048         5.603         0.398         2.724
  WS02006238WS02006235       284.211       548.341         5.661         0.403         2.754
  WS02006235WS02006234       514.769       987.137        10.394         0.754         5.099
  WS02006234WS02006232       514.609       986.766        10.392         0.754         5.098
  WS02006232WS02006231       514.400       986.415        10.387         0.754         5.095
  WS02006231WS02006230       515.047       987.751        10.400         0.755         5.101
  WS02006230WS02006229       515.458       988.421        10.419         0.757         5.113
  WS02006228WS02006109       951.046      1838.334        22.895         1.926        11.811
  WS02006116WS02004401       973.580      1880.424        23.791         2.024        12.326
  WS02006115WS02006116       973.988      1881.172        23.813         2.027        12.338
  WS02006113WS02006111       957.808      1849.136        23.583         2.012        12.243
  WS02006112WS02006115       974.587      1882.194        23.849         2.031        12.360
  WS02006111WS02006112       957.185      1847.945        23.552         2.009        12.224
  WS02006110WS02006113       958.078      1849.522        23.602         2.015        12.254
  WS02006109WS02006110       958.956      1850.914        23.668         2.023        12.295
  WS02004411WS02004412       972.368      1877.961        23.779         2.024        12.321
  WS02004401WS02004402       973.087      1879.579        23.761         2.021        12.307
  WS02004413WS02003067       971.284      1876.099        23.714         2.016        12.282
  WS02004412WS02004413       971.920      1877.149        23.758         2.022        12.309
  WS02004410WS02004411       972.627      1878.455        23.788         2.025        12.327
  WS02004409WS02004410       972.891      1878.936        23.801         2.027        12.335
  WS02004407WS02004409       972.961      1879.100        23.801         2.026        12.334
  WS02004406WS02004407       972.770      1878.804        23.788         2.025        12.326
  WS02004405WS02004406       973.421      1879.893        23.837         2.031        12.357
  WS02004404WS02004405       973.306      1879.799        23.813         2.028        12.341
  WS02004403WS02004404       972.395      1878.373        23.718         2.016        12.282
  WS02004402WS02004403       972.780      1879.034        23.743         2.019        12.296
  WS02004139WS02001211      1354.546      2296.096       101.525        12.245        62.157
  WS02004138WS02004139      1360.616      2306.333       101.977        12.299        62.434
  WS02003067WS02003066       971.093      1875.681        23.715         2.017        12.283
  WS02001213WS02003059      1388.837      2349.846       105.095        12.696        64.401
  WS02001212WS02001213      1397.421      2364.199       105.767        12.777        64.815
  WS02001211WS02001212      1399.253      2367.192       105.925        12.797        64.912
  WS02003072WS02003073      2461.665      4387.200       138.847        15.971        82.970
  WS02003069WS02003072      2466.445      4395.030       139.256        16.022        83.224
  WS02003060WS02003069      2468.839      4399.163       139.412        16.040        83.318
  WS02003059WS02003060      1386.412      2345.649       104.941        12.678        64.309
  HS02004901HS02004770        19.400        38.443         0.369         0.028         0.174
  HS02004876HS02004881        64.837       131.145         1.382         0.100         0.674
  HS02004870HS02004876        49.298        99.611         1.094         0.080         0.536
  HS02004842HS02004848         9.278        18.135         0.191         0.013         0.089
  HS02004837HS02004842        13.923        25.522         0.662         0.072         0.384
  HS02004830HS02004837        81.305       145.726         4.858         0.568         2.931
  HS02004824HS02004830        82.098       147.030         4.931         0.577         2.976
  HS02004817HS02004824       118.559       221.795         5.666         0.624         3.333
  HS02004770HS02004777        73.684       147.824         1.507         0.104         0.700
  HS02004799HS02004480       235.072       460.614         5.678         0.484         2.882
  HS02004792HS02004799       214.135       417.314         5.330         0.464         2.722
  HS02004788HS02004792       116.311       227.331         3.333         0.303         1.755
  HS02004785HS02004788        75.097       150.083         1.653         0.122         0.793
  HS02004777HS02004785        74.428       149.010         1.592         0.115         0.755
  HS02004480HS02004478       294.403       579.882         6.703         0.559         3.370
  HS02004479HS02004480        62.978       125.158         1.335         0.113         0.681
  HS02004862HS02004870        37.529        74.844         0.862         0.066         0.425
  HS02004848HS02004852        15.821        31.380         0.320         0.022         0.149
  HS02004856HS02004862        25.849        52.195         0.514         0.035         0.242
  HS02004852HS02004856        15.835        31.403         0.320         0.022         0.149
  HS02004802HS02004478       144.585       276.089         5.947         0.629         3.432
  HS02004478WS02006287       438.197       854.672        12.601         1.183         6.772
  HS02004817HS02004807       117.199       219.649         5.526         0.607         3.245
  HS02004807HS02004802       144.753       276.347         5.979         0.633         3.453
  YS02001759YS02001757       402.438       762.091         7.844         0.551         3.825
  YS02001762YS02001759       240.912       457.036         4.843         0.344         2.379
  YS02001765YS02001762       242.981       462.240         4.904         0.349         2.412
  YS02001770YS02001767       247.274       473.698         4.853         0.335         2.363
  YS02001774YS02001770       487.335       951.977         9.429         0.633         4.564
  YS02001779YS02001774       486.873       951.142         9.499         0.644         4.613
  YS02001649YS02001757       499.775       931.678        10.008         0.686         4.833
  YS02001767YS02001765       245.466       468.206         4.970         0.354         2.447
  YS02006561YS02001783      1263.661      2385.616        26.091         1.928        12.917
  YS02001783YS02001784      1263.582      2385.501        26.087         1.928        12.915
  YS02001784YS02001785      1270.940      2397.297        26.800         2.017        13.361
  YS02001788YS02001790      1271.550      2398.282        26.872         2.027        13.407
  YS02001790YS02001791      1272.674      2400.100        26.974         2.039        13.470
  YS02001791YS02001793      1272.580      2399.932        26.969         2.039        13.468
  YS02001910YS02001907       566.292      1069.134        12.844         0.953         6.494
  YS02001786YS02001788      1271.152      2397.643        26.828         2.021        13.379
  YS02001915YS02001910       566.037      1068.619        12.797         0.946         6.463
  YS02001918YS02001915       279.637       507.030         6.979         0.604         3.676
  YS02001923YS02001920       254.362       463.851         4.954         0.358         2.426
  YS02001926YS02001923       251.344       458.412         4.839         0.346         2.360
  YS02001929YS02001926       248.439       453.372         4.696         0.331         2.276
  YS02001920YS02001918       275.506       498.372         6.888         0.598         3.630
  YS02001629YS02163301        89.581       159.131         1.892         0.124         0.887
  YS02001619YS02001622       259.391       485.255         5.243         0.348         2.461
  YS02001622YS02001625       258.419       483.725         5.219         0.346         2.450
  YS02001625YS02001629        86.646       153.303         1.847         0.120         0.864
  YS02163301YS02001633        94.421       168.624         1.969         0.131         0.926
  YS02163601YS02164001       529.009       976.474        10.164         0.735         4.886
  YS02164001YS02001641       528.905       976.285        10.151         0.733         4.878
  YS02001641YS02001644       529.926       978.000        10.164         0.734         4.883
  YS02001647YS02001649       661.133      1237.215        13.218         0.917         6.336
  YS02006553YS02006556       782.652      1458.564        16.659         1.263         8.348
  YS02006556YS02006558       782.800      1458.840        16.624         1.258         8.325
  YSB6556YSB1171              36.519        72.729         0.718         0.059         0.359
  YS02001907YS02006553       782.675      1458.619        16.688         1.267         8.368
  YS02006558YS02006561      1263.641      2385.567        26.091         1.928        12.917
  YS02001633YS02163601       529.603       977.411        10.141         0.730         4.868
  YS02001644YS02001647       668.651      1251.505        13.330         0.925         6.387
  YS02001745YS02001748       354.029       679.900         6.988         0.437         3.357
  YS02001748YS02001751       353.336       678.721         6.995         0.440         3.365
  YS02001751YS02001754       352.414       677.206         6.981         0.440         3.359
  YS02001754YS02001757       353.250       678.461         7.147         0.462         3.467
  YS02001882YS02001884         3.968         7.038         0.076         0.006         0.037
  YS02001884YS02001887         7.430        13.416         0.141         0.011         0.069
  YS02001890YS02001895       614.728      1175.316        11.360         0.858         5.543
  YS02001895YS02001898       614.612      1175.192        11.354         0.858         5.540
  YS02001898YS02001901       614.448      1174.883        11.351         0.857         5.538
  YS02001901YS02001904       614.345      1174.752        11.360         0.859         5.545
  YS02001904YS02001907       614.656      1175.205        11.418         0.866         5.581
  YS02001887YS02001890       669.155      1284.167        12.354         0.936         6.031
  YS02001652YS02001649       312.302       592.689         6.204         0.449         2.915
  YS02001655YS02001652       313.078       593.938         6.225         0.450         2.925
  YS02001658YS02001655       312.898       593.651         6.146         0.439         2.873
  YS02001661YS02001658       313.772       595.065         6.168         0.441         2.882
  YS02001664YS02001661       324.047       611.694         6.408         0.457         2.992
  YSB1154YSB6556              36.099        72.065         0.671         0.053         0.330
  YSB1174YSB1171              24.944        50.008         0.488         0.039         0.242
  YSB1171HS02004479           62.901       125.015         1.341         0.114         0.684
  HS02004881HS02006253        73.213       148.572         1.535         0.110         0.748
  YS02001793JiankangQianchi      1272.470      2399.761        26.936         2.034        13.446
  YS02001757CaochengTiaoxuchi       635.807      1211.068        12.224         0.840         5.887
  WSF200WS02003060           971.107      1875.654        23.722         2.018        12.288
  1                         2467.935      4396.479       139.618        16.071        83.460
  CC-Pump-1                  157.624       303.567         2.967         0.204         1.424
  CC-Pump-2                   52.300       100.691         0.986         0.068         0.473
  JK-Pump-1                  344.609       658.420         7.039         0.523         3.484
  JK-Pump-2                  742.270      1422.054        14.965         1.100         7.377
  XR-Pump-1                  347.414       588.289        26.161         3.158        16.023
  XR-Pump-2                  338.999       574.784        25.374         3.060        15.533
  XR-Pump-3                  338.999       574.784        25.374         3.060        15.533
  XR-Pump-4                  338.999       574.784        25.374         3.060        15.533
  

  Analysis begun on:  Thu Jul 15 13:07:51 2021
  Analysis ended on:  Thu Jul 15 13:07:53 2021
  Total elapsed time: 00:00:02