
  EPA STORM WATER MANAGEMENT MODEL - VERSION 5.1 (Build 5.3.0.dev0)
  --------------------------------------------------------------

  WARNING 04: minimum elevation drop used for Conduit WS02004404WS02004405
  WARNING 03: negative offset ignored for Link YS02001904YS02001907
  
  *********************************************************
  NOTE: The summary statistics displayed in this report are
  based on results found at every computational time step,  
  not just on results from each reporting time step.
  *********************************************************
  
  ****************
  Analysis Options
  ****************
  Flow Units ............... LPS
  Process Models:
    Rainfall/Runoff ........ YES
    RDII ................... NO
    Snowmelt ............... NO
    Groundwater ............ NO
    Flow Routing ........... YES
    Ponding Allowed ........ NO
    Water Quality .......... YES
  Infiltration Method ...... HORTON
  Flow Routing Method ...... DYNWAVE
  Surcharge Method ......... EXTRAN
  Starting Date ............ 08/28/2015 08:00:00
  Ending Date .............. 08/28/2015 15:50:00
  Antecedent Dry Days ...... 8.0
  Report Time Step ......... 00:01:00
  Wet Time Step ............ 00:01:00
  Dry Time Step ............ 00:01:00
  Routing Time Step ........ 5.00 sec
  Variable Time Step ....... YES
  Maximum Trials ........... 8
  Number of Threads ........ 4
  Head Tolerance ........... 0.001500 m
  
  
  **************************        Volume         Depth
  Runoff Quantity Continuity     hectare-m            mm
  **************************     ---------       -------
  Total Precipitation ......         7.641        16.729
  Evaporation Loss .........         0.000         0.000
  Infiltration Loss ........         1.184         2.592
  Surface Runoff ...........         5.481        12.000
  Final Storage ............         0.977         2.139
  Continuity Error (%) .....        -0.016
  
  
  **************************           COD            SS            TN            TP         NH4-N
  Runoff Quality Continuity             kg            kg            kg            kg            kg
  **************************    ----------    ----------    ----------    ----------    ----------
  Initial Buildup ..........     41378.656     70582.865      1804.177       168.684      1032.807
  Surface Buildup ..........        30.344        63.217         2.449         0.220         1.402
  Wet Deposition ...........         0.000         0.000         0.000         0.000         0.000
  Sweeping Removal .........         0.000         0.000         0.000         0.000         0.000
  Infiltration Loss ........       127.934       247.015         2.452         0.174         1.174
  BMP Removal ..............         0.000         0.000         0.000         0.000         0.000
  Surface Runoff ...........      5553.100     10632.121       107.101         7.411        51.076
  Remaining Buildup ........     35725.917     59762.998      1697.031       161.316       981.940
  Continuity Error (%) .....         0.005         0.006         0.002         0.002         0.002
  
  
  **************************        Volume        Volume
  Flow Routing Continuity        hectare-m      10^6 ltr
  **************************     ---------     ---------
  Dry Weather Inflow .......         0.616         6.165
  Wet Weather Inflow .......         5.479        54.792
  Groundwater Inflow .......         0.000         0.000
  RDII Inflow ..............         0.000         0.000
  External Inflow ..........         0.102         1.024
  External Outflow .........         1.948        19.484
  Flooding Loss ............         3.783        37.828
  Evaporation Loss .........         0.000         0.000
  Exfiltration Loss ........         0.000         0.000
  Initial Stored Volume ....         0.076         0.761
  Final Stored Volume ......         0.651         6.515
  Continuity Error (%) .....        -1.731
  
  
  **************************           COD            SS            TN            TP         NH4-N
  Quality Routing Continuity            kg            kg            kg            kg            kg
  **************************    ----------    ----------    ----------    ----------    ----------
  Dry Weather Inflow .......      1541.201      2465.922       147.955        18.494        92.472
  Wet Weather Inflow .......      5552.086     10630.327       107.079         7.410        51.066
  Groundwater Inflow .......         0.000         0.000         0.000         0.000         0.000
  RDII Inflow ..............         0.000         0.000         0.000         0.000         0.000
  External Inflow ..........       183.418       293.469        17.608         2.201        11.005
  External Outflow .........      2434.157      4332.881       139.196        16.058        83.297
  Flooding Loss ............      4074.413      7690.538       103.572         8.979        54.263
  Exfiltration Loss ........         0.000         0.000         0.000         0.000         0.000
  Mass Reacted .............         0.000         0.000         0.000         0.000         0.000
  Initial Stored Mass ......         0.000         0.000         0.000         0.000         0.000
  Final Stored Mass ........       658.998      1185.895        26.351         2.747        15.073
  Continuity Error (%) .....         1.500         1.347         1.292         1.143         1.236
  
  
  *************************
  Highest Continuity Errors
  *************************
  Node HS02004842 (10.96%)
  Node JK-storage (-8.88%)
  Node YS02001884 (8.41%)
  Node HS02004817 (2.13%)
  Node YSB1171 (1.97%)
  
  
  ***************************
  Time-Step Critical Elements
  ***************************
  Link WS02006252WS02006251 (59.03%)
  Link WS02006280WS02006229 (11.21%)
  Link YS02001793JiankangQianchi (8.67%)
  Link WS02006238WS02006235 (6.54%)
  Link YS02006556YS02006558 (2.40%)
  
  
  ********************************
  Highest Flow Instability Indexes
  ********************************
  Link WS02006113WS02006111 (49)
  Link YS02163601YS02164001 (29)
  Link YS02001619YS02001622 (29)
  Link YS02001629YS02163301 (29)
  Link YS02163301YS02001633 (28)
  
  
  *************************
  Routing Time Step Summary
  *************************
  Minimum Time Step           :     0.23 sec
  Average Time Step           :     1.39 sec
  Maximum Time Step           :     5.00 sec
  Percent in Steady State     :    -0.00
  Average Iterations per Step :     3.66
  Percent Not Converging      :    12.92
  
  
  ***************************
  Subcatchment Runoff Summary
  ***************************
  
  ------------------------------------------------------------------------------------------------------------------------------
                            Total      Total      Total      Total     Imperv       Perv      Total       Total     Peak  Runoff
                           Precip      Runon       Evap      Infil     Runoff     Runoff     Runoff      Runoff   Runoff   Coeff
  Subcatchment                 mm         mm         mm         mm         mm         mm         mm    10^6 ltr      LPS
  ------------------------------------------------------------------------------------------------------------------------------
  sub0                      16.73       0.00       0.00       0.71      15.51       0.47      15.98        0.01     3.87   0.955
  sub1                      16.73       0.00       0.00       1.18      14.80       0.66      15.46        0.10    26.74   0.924
  sub2                      16.73       0.00       0.00       4.79      10.46       1.40      11.85        0.11    25.81   0.708
  sub3                      16.73       0.00       0.00       5.01      10.42       1.18      11.60        0.26    56.97   0.693
  sub4                      16.73       0.00       0.00       1.28      14.64       0.56      15.20        0.32    66.74   0.909
  sub5                      16.73       0.00       0.00       0.73      15.46       0.44      15.91        0.18    46.91   0.951
  sub7                      16.73       0.00       0.00       0.93      15.16       0.58      15.74        0.05    14.85   0.941
  sub8                      16.73       0.00       0.00       0.94      15.15       0.57      15.72        0.10    27.42   0.940
  sub9                      16.73       0.00       0.00       0.94      15.15       0.57      15.72        0.08    20.52   0.940
  sub10                     16.73       0.00       0.00       0.83      15.30       0.50      15.81        0.17    46.04   0.945
  sub11                     16.73       0.00       0.00       0.83      15.32       0.51      15.83        0.18    50.62   0.947
  sub12                     16.73       0.00       0.00       1.34      14.51       0.83      15.34        0.13    39.22   0.917
  sub14                     16.73       0.00       0.00       0.94      15.15       0.57      15.72        0.15    40.40   0.939
  sub15                     16.73       0.00       0.00       3.54      11.65       1.48      13.13        0.23    57.86   0.785
  sub16                     16.73       0.00       0.00       3.72      11.17       1.80      12.97        0.14    37.34   0.776
  sub17                     16.73       0.00       0.00       3.62      11.33       1.73      13.07        0.11    30.57   0.781
  sub22                     16.73       0.00       0.00       5.27       9.49       1.92      11.42        0.72   183.11   0.683
  sub23                     16.73       0.00       0.00       4.37      10.50       1.82      12.32        0.59   153.57   0.736
  sub60                     16.73       0.00       0.00       1.74      12.78       0.27      13.05        3.96   446.24   0.780
  sub61                     16.73       0.00       0.00       2.46      12.72       0.38      13.11        4.04   542.53   0.784
  sub62                     16.73       0.00       0.00       1.06      13.91       0.27      14.19        4.36   558.01   0.848
  sub63                     16.73       0.00       0.00       4.39      11.06       0.46      11.52        3.49   496.40   0.689
  sub64                     16.73       0.00       0.00       2.23      12.28       0.28      12.56        3.82   424.95   0.751
  sub65                     16.73       0.00       0.00       1.91      12.51       0.27      12.77        3.93   431.32   0.764
  sub66                     16.73       0.00       0.00       4.54      10.46       0.31      10.78        3.31   388.44   0.644
  sub67                     16.73       0.00       0.00       1.01      14.45       0.32      14.78        4.56   675.76   0.883
  sub68                     16.73       0.00       0.00       1.95      13.33       0.39      13.71        4.22   589.75   0.820
  sub69                     16.73       0.00       0.00       2.00      13.62       0.51      14.12        3.30   542.07   0.844
  sub70                     16.73      14.42       0.00       8.47      19.01       2.12      21.13        4.84   534.50   0.678
  sub71                     16.73       0.00       0.00       1.08      13.65       0.25      13.90        3.28   394.68   0.831
  sub72                     16.73       0.00       0.00       1.02      11.50       0.15      11.65        2.37   206.66   0.697
  1                         16.73      20.58       0.00       1.37      22.38       7.20      29.58        6.95   612.18   0.793
  2                         16.73       0.00       0.00       3.02       4.04       3.18       7.22        2.89   331.58   0.431
  
  
  ****************************
  Subcatchment Washoff Summary
  ****************************
  
  ------------------------------------------------------------------------------------------
                                 COD            SS            TN            TP         NH4-N
  Subcatchment                    kg            kg            kg            kg            kg
  ------------------------------------------------------------------------------------------
  sub0                         3.641         7.161         0.064         0.005         0.031
  sub1                        15.670        31.767         0.296         0.021         0.143
  sub2                        10.304        20.454         0.214         0.015         0.099
  sub3                        25.293        49.815         0.517         0.036         0.240
  sub4                        36.168        74.260         0.714         0.044         0.344
  sub5                        35.763        71.366         0.649         0.050         0.316
  sub7                         7.894        16.212         0.150         0.010         0.073
  sub8                        11.755        24.726         0.234         0.014         0.113
  sub9                        10.113        20.966         0.196         0.013         0.095
  sub10                       29.347        59.341         0.545         0.040         0.265
  sub11                       28.395        58.052         0.536         0.037         0.260
  sub12                       24.463        49.072         0.450         0.034         0.218
  sub14                       21.697        44.543         0.414         0.028         0.200
  sub15                       29.696        58.821         0.572         0.042         0.270
  sub16                       19.246        38.050         0.367         0.028         0.174
  sub17                       17.687        34.653         0.330         0.026         0.156
  sub22                       95.915       186.896         1.820         0.139         0.857
  sub23                       54.382       109.539         1.141         0.076         0.527
  sub60                      353.947       679.509         6.988         0.437         3.357
  sub61                      439.695       840.113         8.188         0.570         3.952
  sub62                      449.790       873.119         8.744         0.564         4.209
  sub63                      328.186       618.356         6.505         0.463         3.037
  sub64                      450.924       835.563         8.299         0.611         3.976
  sub65                      460.537       856.688         8.527         0.617         4.090
  sub66                      259.427       485.147         5.248         0.348         2.463
  sub67                      667.181      1281.068        12.075         0.900         5.853
  sub68                      479.473       924.467         9.153         0.628         4.389
  sub69                      429.286       835.450         8.068         0.576         3.873
  sub70                      758.301      1478.311        15.194         1.074         7.173
  sub71                      296.268       580.620         6.027         0.356         2.890
  sub72                      247.759       452.374         4.612         0.320         2.223
  1                          576.917      1130.968        11.723         0.829         5.484
  2                           65.566       118.435         1.802         0.109         0.773
  ------------------------------------------------------------------------------------------
  System                    6740.687     12945.882       130.363         9.060        62.122
  
  
  ******************
  Node Depth Summary
  ******************
  
  ---------------------------------------------------------------------------------
                                 Average  Maximum  Maximum  Time of Max    Reported
                                   Depth    Depth      HGL   Occurrence   Max Depth
  Node                 Type       Meters   Meters   Meters  days hr:min      Meters
  ---------------------------------------------------------------------------------
  WS02001211           JUNCTION     0.77     0.85     5.69     0  02:04        0.85
  WS02001212           JUNCTION     0.48     0.58     5.64     0  02:05        0.58
  WS02001213           JUNCTION     0.72     0.86     5.62     0  02:03        0.86
  WS02003069           JUNCTION     0.51     0.72     5.31     0  02:03        0.72
  WS02003072           JUNCTION     0.57     0.76     5.14     0  02:04        0.76
  WS02003073           JUNCTION     0.35     0.48     4.55     0  02:04        0.48
  WS02003060           JUNCTION     0.45     0.64     5.57     0  02:03        0.64
  WS02003066           JUNCTION     0.24     0.39     5.94     0  01:58        0.39
  WS02003059           JUNCTION     0.77     0.91     5.60     0  02:03        0.91
  WS02003067           JUNCTION     0.58     0.83     6.15     0  01:57        0.83
  WS02004401           JUNCTION     0.70     1.31     7.31     0  01:55        1.27
  WS02004402           JUNCTION     0.73     1.29     7.25     0  01:55        1.25
  WS02004403           JUNCTION     0.75     1.27     7.20     0  01:55        1.22
  WS02004404           JUNCTION     0.82     1.31     7.16     0  01:55        1.26
  WS02004406           JUNCTION     0.82     1.20     7.03     0  01:55        1.17
  WS02004409           JUNCTION     0.51     0.98     6.75     0  01:57        0.98
  WS02004410           JUNCTION     0.53     0.96     6.68     0  01:57        0.96
  WS02004411           JUNCTION     0.54     0.94     6.62     0  01:58        0.94
  WS02004412           JUNCTION     0.56     0.91     6.55     0  01:57        0.91
  WS02004413           JUNCTION     0.71     1.03     6.50     0  01:57        1.03
  WS02004405           JUNCTION     0.81     1.28     7.13     0  01:55        1.23
  WS02006109           JUNCTION     0.80     1.75     8.37     0  01:55        1.75
  WS02006110           JUNCTION     0.77     1.54     8.13     0  01:55        1.53
  WS02006111           JUNCTION     0.25     1.03     7.73     0  01:55        0.95
  WS02006112           JUNCTION     0.88     1.65     7.53     0  01:55        1.61
  WS02006113           JUNCTION     0.36     1.04     7.93     0  01:55        1.00
  WS02006115           JUNCTION     0.60     1.31     7.45     0  01:55        1.26
  WS02006116           JUNCTION     0.68     1.34     7.38     0  01:55        1.30
  WS02006230           JUNCTION     0.79     1.98     8.72     0  01:56        1.98
  WS02006231           JUNCTION     0.54     1.61     8.74     0  01:56        1.60
  WS02006232           JUNCTION     0.67     1.70     8.74     0  01:56        1.69
  WS02006234           JUNCTION     0.60     1.60     8.75     0  01:56        1.58
  WS02006235           JUNCTION     0.63     1.60     8.76     0  01:56        1.59
  WS02006238           JUNCTION     0.65     1.61     8.76     0  01:56        1.60
  WS02006240           JUNCTION     0.54     1.44     8.73     0  01:55        1.44
  WS02006242           JUNCTION     0.59     1.46     8.72     0  01:55        1.45
  WS02006243           JUNCTION     0.46     1.29     8.71     0  01:55        1.29
  WS02006245           JUNCTION     0.43     1.23     8.71     0  01:53        1.22
  WS02006247           JUNCTION     0.44     1.22     8.72     0  01:53        1.19
  WS02006248           JUNCTION     0.38     1.10     8.69     0  01:53        1.10
  WS02006249           JUNCTION     0.40     1.09     8.69     0  01:53        1.09
  WS02006239           JUNCTION     0.60     1.53     8.74     0  01:56        1.53
  WS02006251           JUNCTION     0.36     1.34     9.01     0  01:54        1.15
  WS02006252           JUNCTION     0.24     0.79     9.03     0  01:54        0.71
  WS02006253           JUNCTION     0.39     1.52     9.16     0  01:54        1.18
  WS02006256           JUNCTION     1.66     2.35     9.28     0  00:42        2.35
  WS02004138           JUNCTION     0.19     0.20     7.45     0  00:00        0.19
  WS02004139           JUNCTION     0.72     0.79     5.70     0  02:05        0.79
  WS02004407           JUNCTION     0.23     0.40     6.72     0  01:56        0.40
  WS02006228           JUNCTION     0.81     1.94     8.59     0  01:55        1.93
  WS02006229           JUNCTION     0.80     2.02     8.71     0  01:56        2.01
  WS02006280           JUNCTION     0.08     0.34     8.61     0  01:55        0.32
  WS02006284           JUNCTION     0.39     0.66     9.06     0  01:54        0.66
  WS02006287           JUNCTION     0.12     0.40     9.36     0  01:54        0.40
  WSF200               JUNCTION     0.23     0.44     5.67     0  01:58        0.44
  HS02004901           JUNCTION     0.14     0.38    10.21     0  01:53        0.38
  HS02004881           JUNCTION     0.01     0.06     9.08     0  01:54        0.05
  HS02004876           JUNCTION     0.05     0.17     9.20     0  01:54        0.17
  HS02004870           JUNCTION     0.02     0.10     9.38     0  01:54        0.10
  HS02004862           JUNCTION     0.03     0.11     9.50     0  01:55        0.11
  HS02004856           JUNCTION     0.08     0.15     9.58     0  01:54        0.15
  HS02004852           JUNCTION     0.02     0.08     9.59     0  01:54        0.08
  HS02004848           JUNCTION     0.01     0.07     9.67     0  01:54        0.07
  HS02004842           JUNCTION     0.34     0.40     9.67     0  01:54        0.40
  HS02004837           JUNCTION     0.03     0.09     9.67     0  01:54        0.09
  HS02004830           JUNCTION     0.05     0.11     9.58     0  01:55        0.11
  HS02004824           JUNCTION     0.03     0.15     9.55     0  01:54        0.15
  HS02004817           JUNCTION     0.46     0.71     9.56     0  01:54        0.71
  HS02004807           JUNCTION     0.14     0.38     9.55     0  01:55        0.38
  HS02004802           JUNCTION     0.18     0.41     9.54     0  01:55        0.41
  HS02004799           JUNCTION     0.15     0.48     9.69     0  01:53        0.48
  HS02004792           JUNCTION     0.05     0.22     9.75     0  01:53        0.22
  HS02004788           JUNCTION     0.04     0.16    10.06     0  01:54        0.16
  HS02004785           JUNCTION     0.06     0.25    10.15     0  01:53        0.25
  HS02004777           JUNCTION     0.17     0.40    10.20     0  01:53        0.40
  HS02004770           JUNCTION     0.14     0.37    10.21     0  01:53        0.37
  HS02004480           JUNCTION     0.10     0.39     9.64     0  01:53        0.39
  HS02004479           JUNCTION     0.14     0.43     9.64     0  01:53        0.43
  HS02004478           JUNCTION     0.08     0.29     9.52     0  01:54        0.29
  YS02001745           JUNCTION     0.79     0.97     8.49     0  02:52        0.97
  YS02001748           JUNCTION     1.19     1.41     8.48     0  02:46        1.40
  YS02001751           JUNCTION     1.37     1.60     8.48     0  02:48        1.59
  YS02001754           JUNCTION     1.62     1.86     8.47     0  02:48        1.86
  YS02001762           JUNCTION     1.82     2.06     8.46     0  02:48        2.05
  YS02001765           JUNCTION     1.77     2.00     8.45     0  02:48        2.00
  YS02001767           JUNCTION     1.73     1.96     8.45     0  02:47        1.95
  YS02001770           JUNCTION     1.73     1.94     8.44     0  02:47        1.93
  YS02001774           JUNCTION     1.79     1.99     8.41     0  02:45        1.98
  YS02001779           JUNCTION     1.53     1.68     8.37     0  01:51        1.68
  YS02001882           JUNCTION     0.72     1.67     8.38     0  01:50        1.63
  YS02001884           JUNCTION     0.81     1.75     8.37     0  01:50        1.73
  YS02001759           JUNCTION     1.85     2.10     8.47     0  02:47        2.09
  YS02001887           JUNCTION     0.89     1.82     8.36     0  02:12        1.81
  YS02001890           JUNCTION     0.92     1.81     8.32     0  01:50        1.81
  YS02001898           JUNCTION     0.68     1.57     8.30     0  01:51        1.56
  YS02001901           JUNCTION     0.80     1.68     8.29     0  01:51        1.67
  YS02001904           JUNCTION     0.78     1.64     8.27     0  02:08        1.63
  YS02001907           JUNCTION     1.11     1.96     8.25     0  01:51        1.96
  YS02001910           JUNCTION     0.90     1.87     8.38     0  01:51        1.79
  YS02001915           JUNCTION     0.70     1.74     8.45     0  01:51        1.63
  YS02001918           JUNCTION     0.44     1.53     8.59     0  01:51        1.36
  YS02001619           JUNCTION     1.32     1.57     8.50     0  01:45        1.48
  YS02001629           JUNCTION     1.67     1.85     8.40     0  01:48        1.84
  YS02001641           JUNCTION     1.77     1.94     8.37     0  01:49        1.93
  YS02001644           JUNCTION     1.77     1.92     8.35     0  01:48        1.92
  YS02001652           JUNCTION     1.63     1.93     8.53     0  04:05        1.85
  YS02001655           JUNCTION     1.39     1.75     8.60     0  04:05        1.63
  YS02001920           JUNCTION     0.53     1.67     8.68     0  01:51        1.46
  YS02001923           JUNCTION     0.35     1.50     8.76     0  01:51        1.25
  YS02001926           JUNCTION     0.38     1.54     8.99     0  01:51        1.14
  YS02001929           JUNCTION     0.23     0.97     8.67     0  01:52        0.97
  YS02001658           JUNCTION     1.13     1.55     8.69     0  04:05        1.36
  YS02001661           JUNCTION     0.89     1.52     8.93     0  04:05        1.17
  YS02001664           JUNCTION     0.41     0.57     8.49     0  04:10        0.56
  YS02001622           JUNCTION     1.34     1.57     8.47     0  01:45        1.50
  YS02001633           JUNCTION     1.76     1.95     8.41     0  01:48        1.94
  YS02001649           JUNCTION     1.82     2.05     8.44     0  02:45        2.05
  YS02001757           JUNCTION     1.95     2.20     8.46     0  02:47        2.19
  YS02001895           JUNCTION     0.68     1.57     8.31     0  01:51        1.56
  YS02001625           JUNCTION     1.62     1.78     8.38     0  01:45        1.78
  YS02163301           JUNCTION     1.70     1.88     8.40     0  01:52        1.88
  YS02163601           JUNCTION     1.81     1.99     8.39     0  01:48        1.98
  YS02164001           JUNCTION     1.75     1.92     8.38     0  01:48        1.91
  YS02001647           JUNCTION     1.61     1.80     8.41     0  04:10        1.79
  YSB1154              JUNCTION     0.28     0.58     9.64     0  01:53        0.58
  YSB6556              JUNCTION     0.17     0.47     9.64     0  01:53        0.47
  YSB1174              JUNCTION     0.23     0.53     9.64     0  01:53        0.53
  YSB1171              JUNCTION     0.43     0.74     9.64     0  01:53        0.74
  YS02006553           JUNCTION     1.11     1.97     8.25     0  02:10        1.97
  YS02006561           JUNCTION     0.43     1.10     7.76     0  01:50        1.08
  YS02006556           JUNCTION     1.07     1.93     8.24     0  02:10        1.93
  YS02006558           JUNCTION     1.11     1.98     8.25     0  02:11        1.97
  YS02001783           JUNCTION     0.67     1.69     7.83     0  01:45        1.47
  YS02001784           JUNCTION     0.68     1.60     7.67     0  01:45        1.41
  YS02001786           JUNCTION     0.60     1.46     7.49     0  01:44        1.40
  YS02001788           JUNCTION     0.52     1.39     7.37     0  01:45        1.36
  YS02001790           JUNCTION     0.64     1.96     7.60     0  01:44        1.44
  YS02001791           JUNCTION     0.60     2.72     8.19     0  01:43        1.36
  YS02001793           JUNCTION     0.85     2.98     7.81     0  04:28        1.86
  WSC                  OUTFALL      0.35     0.48     1.15     0  02:05        0.48
  JK-storage           STORAGE      3.43     5.80     6.60     0  01:44        5.80
  CC-storage           STORAGE      1.20     1.46     8.46     0  02:49        1.46
  XR-storage           STORAGE      6.99     7.72     5.72     0  02:07        7.72
  
  
  *******************
  Node Inflow Summary
  *******************
  
  -------------------------------------------------------------------------------------------------
                                  Maximum  Maximum                  Lateral       Total        Flow
                                  Lateral    Total  Time of Max      Inflow      Inflow     Balance
                                   Inflow   Inflow   Occurrence      Volume      Volume       Error
  Node                 Type           LPS      LPS  days hr:min    10^6 ltr    10^6 ltr     Percent
  -------------------------------------------------------------------------------------------------
  WS02001211           JUNCTION      7.35   389.96     0  02:26       0.207        10.3       0.381
  WS02001212           JUNCTION      0.00   392.51     0  02:26           0        10.3       0.226
  WS02001213           JUNCTION      0.00   394.64     0  02:25           0        10.2       0.261
  WS02003069           JUNCTION      0.32  1338.94     0  02:03     0.00902        19.5       0.143
  WS02003072           JUNCTION      0.00  1338.91     0  02:04           0        19.5       0.178
  WS02003073           JUNCTION      1.82  1341.01     0  02:04      0.0514        19.5       0.198
  WS02003060           JUNCTION     16.53  1338.30     0  02:03       0.466        19.6       0.136
  WS02003066           JUNCTION      0.00   954.68     0  01:58           0        8.91       0.034
  WS02003059           JUNCTION      0.00   397.18     0  02:44           0        10.2       0.373
  WS02003067           JUNCTION      0.00   954.02     0  01:58           0        8.91       0.075
  WS02004401           JUNCTION      0.00   968.18     0  01:56           0        9.08       0.164
  WS02004402           JUNCTION      0.00   968.18     0  01:56           0        9.06       0.159
  WS02004403           JUNCTION      0.00   968.96     0  01:56           0        9.05       0.151
  WS02004404           JUNCTION      0.16   969.21     0  01:56     0.00457        9.04       0.120
  WS02004406           JUNCTION      0.00   970.23     0  01:56           0        9.01       0.294
  WS02004409           JUNCTION      0.00   968.37     0  01:56           0        8.98       0.102
  WS02004410           JUNCTION      0.00   957.15     0  01:57           0        8.97       0.125
  WS02004411           JUNCTION      0.00   952.27     0  01:58           0        8.96       0.135
  WS02004412           JUNCTION      0.00   953.92     0  01:58           0        8.95       0.156
  WS02004413           JUNCTION      0.00   953.85     0  01:58           0        8.94       0.247
  WS02004405           JUNCTION      0.04   970.44     0  01:56     0.00107        9.03       0.176
  WS02006109           JUNCTION      1.23   938.91     0  01:56      0.0347        9.04       0.123
  WS02006110           JUNCTION      0.00   938.77     0  01:56           0        9.03       0.142
  WS02006111           JUNCTION      0.00   938.09     0  01:56           0        9.01       0.012
  WS02006112           JUNCTION     30.57   967.11     0  01:56       0.112        9.12       0.252
  WS02006113           JUNCTION      0.00   938.52     0  01:56           0        9.02       0.054
  WS02006115           JUNCTION      0.00   967.01     0  01:56           0         9.1       0.129
  WS02006116           JUNCTION      0.00   968.06     0  01:56           0        9.09       0.117
  WS02006230           JUNCTION     10.28   502.00     0  06:32        0.29        5.93       0.136
  WS02006231           JUNCTION      0.00   484.70     0  06:33           0        5.64      -0.031
  WS02006232           JUNCTION      0.00   484.55     0  06:33           0        5.64       0.150
  WS02006234           JUNCTION      0.00   484.58     0  06:33           0        5.64      -0.010
  WS02006235           JUNCTION      0.00   484.54     0  06:33           0        5.73       0.083
  WS02006238           JUNCTION      0.00   320.12     0  06:12           0         2.3      -0.158
  WS02006240           JUNCTION      0.00   338.69     0  06:12           0        2.24       0.061
  WS02006242           JUNCTION      0.00   347.30     0  06:11           0        2.21       0.142
  WS02006243           JUNCTION      0.00   355.99     0  06:11           0        2.19       0.024
  WS02006245           JUNCTION      0.00   361.54     0  06:11           0        2.17       0.237
  WS02006247           JUNCTION      0.00   366.09     0  06:11           0        2.16       0.052
  WS02006248           JUNCTION      0.00   370.60     0  06:10           0        2.17      -0.136
  WS02006249           JUNCTION      0.00   466.09     0  02:30           0        2.31       0.175
  WS02006239           JUNCTION      0.00   328.17     0  06:12           0        2.27      -0.219
  WS02006251           JUNCTION      0.08   463.84     0  02:30     0.00217        2.33      -0.037
  WS02006252           JUNCTION      0.00   399.55     0  02:30           0        1.68       0.006
  WS02006253           JUNCTION      3.87   195.53     0  01:54      0.0129       0.641      -0.053
  WS02006256           JUNCTION      0.00   983.00     0  02:00           0        11.4       0.008
  WS02004138           JUNCTION      0.00   380.00     0  00:00           0        10.1       0.065
  WS02004139           JUNCTION      0.32   394.45     0  00:00     0.00905        10.1       0.441
  WS02004407           JUNCTION      0.00   970.89     0  01:56           0        8.99       0.046
  WS02006228           JUNCTION      0.00   937.60     0  01:56           0        9.01       0.085
  WS02006229           JUNCTION      0.00   989.68     0  01:55           0        9.03       0.114
  WS02006280           JUNCTION      0.00   736.07     0  01:54           0        3.11       0.015
  WS02006284           JUNCTION      0.10   735.80     0  01:54      0.0027        3.11       0.020
  WS02006287           JUNCTION      0.00   735.62     0  01:54           0        3.11       0.023
  WSF200               JUNCTION      0.00   955.15     0  01:58           0         8.9       0.028
  HS02004901           JUNCTION     37.34    37.34     0  01:51       0.136       0.136       1.311
  HS02004881           JUNCTION     14.85   153.29     0  01:54       0.053       0.601       0.093
  HS02004876           JUNCTION     26.74   139.06     0  01:54       0.103       0.549       0.099
  HS02004870           JUNCTION     27.42   112.65     0  01:54         0.1       0.446       0.025
  HS02004862           JUNCTION     26.01    86.18     0  01:54       0.116       0.346       0.050
  HS02004856           JUNCTION     20.52    60.23     0  01:54      0.0756       0.231       0.627
  HS02004852           JUNCTION      0.00    40.37     0  01:54           0       0.155       0.036
  HS02004848           JUNCTION     56.97    56.97     0  01:56       0.261       0.261       0.018
  HS02004842           JUNCTION      0.00    18.18     0  02:06           0       0.119      12.307
  HS02004837           JUNCTION     52.39    67.87     0  01:54       0.353       0.459       0.177
  HS02004830           JUNCTION      0.15    67.98     0  01:54     0.00423       0.449       0.275
  HS02004824           JUNCTION     66.79   134.68     0  01:56       0.318       0.767       0.071
  HS02004817           JUNCTION      0.60   136.89     0  01:57      0.0169       0.783       2.175
  HS02004807           JUNCTION     50.62   184.24     0  01:55       0.184       0.952       0.460
  HS02004802           JUNCTION      0.00   183.91     0  01:56           0        0.95       0.417
  HS02004799           JUNCTION     40.40   470.74     0  01:53        0.15        1.87       0.159
  HS02004792           JUNCTION    183.39   430.97     0  01:53       0.729        1.72       0.023
  HS02004788           JUNCTION     59.53   248.79     0  01:53       0.273       0.991       0.039
  HS02004785           JUNCTION      0.15   189.55     0  01:53     0.00423        0.72       0.070
  HS02004777           JUNCTION      0.03   189.71     0  01:52    0.000846        0.72       0.728
  HS02004770           JUNCTION    153.57   190.37     0  01:52       0.587       0.722       0.429
  HS02004480           JUNCTION      0.00   554.32     0  01:53           0        2.18       0.044
  HS02004479           JUNCTION      0.00    83.75     0  01:53           0       0.323       0.228
  HS02004478           JUNCTION      0.00   735.57     0  01:54           0        3.11       0.010
  YS02001745           JUNCTION    446.25   446.25     0  02:16        3.95        3.95       0.293
  YS02001748           JUNCTION      0.04   451.41     0  02:16     0.00127        3.94       0.584
  YS02001751           JUNCTION      0.01   450.47     0  02:16     0.00031        3.92       0.611
  YS02001754           JUNCTION      0.26   450.76     0  02:16     0.00733        3.91       0.634
  YS02001762           JUNCTION      0.00   433.26     0  01:55           0        2.39       0.899
  YS02001765           JUNCTION      0.00   433.85     0  01:55           0         2.4       1.026
  YS02001767           JUNCTION      0.54   434.27     0  01:55      0.0151        2.42       1.496
  YS02001770           JUNCTION    558.16   765.35     0  02:53        4.36        5.54       0.565
  YS02001774           JUNCTION      0.00   765.35     0  02:53           0        4.28       0.591
  YS02001779           JUNCTION      0.01   765.36     0  02:53    0.000141        4.25       0.374
  YS02001882           JUNCTION      0.00    61.46     0  01:48           0      0.0345       6.159
  YS02001884           JUNCTION      0.00    71.99     0  01:46           0      0.0735       9.179
  YS02001759           JUNCTION    542.57   878.67     0  01:56        4.04        5.23       0.437
  YS02001887           JUNCTION    676.21   677.41     0  02:15        4.57         4.6       0.188
  YS02001890           JUNCTION      0.00   677.24     0  02:14           0        4.56       0.199
  YS02001898           JUNCTION      0.00   524.84     0  01:51           0        4.27       0.076
  YS02001901           JUNCTION      0.00   525.22     0  01:51           0        4.27       0.150
  YS02001904           JUNCTION      0.00   526.22     0  01:51           0        4.26       0.136
  YS02001907           JUNCTION      0.00  1168.24     0  01:52           0        9.98       0.245
  YS02001910           JUNCTION      0.00   653.84     0  01:52           0        5.74       0.221
  YS02001915           JUNCTION    394.70   654.07     0  01:52        3.28        5.79       0.091
  YS02001918           JUNCTION      0.00   373.21     0  01:52           0        2.54       0.055
  YS02001619           JUNCTION    388.44   388.44     0  02:16         3.3         3.3       0.372
  YS02001629           JUNCTION      0.00   220.75     0  01:48           0        1.43       2.069
  YS02001641           JUNCTION      0.00   455.41     0  01:48           0        5.09       0.414
  YS02001644           JUNCTION    424.99  1608.26     0  02:47        3.82        15.4       0.178
  YS02001652           JUNCTION      0.00   519.15     0  02:09           0        3.43       0.677
  YS02001655           JUNCTION      0.15   518.06     0  02:09     0.00434        3.46       0.733
  YS02001920           JUNCTION      2.87   372.33     0  01:52      0.0809        2.52       0.121
  YS02001923           JUNCTION      0.04   310.28     0  01:53     0.00106        2.42       0.057
  YS02001926           JUNCTION      0.05   337.26     0  01:50     0.00147        2.39       0.119
  YS02001929           JUNCTION    206.66   206.66     0  03:01        2.37        2.38       0.027
  YS02001658           JUNCTION      0.00   524.85     0  02:02           0        3.48       0.702
  YS02001661           JUNCTION      0.00   758.60     0  01:53           0        3.65       0.009
  YS02001664           JUNCTION    496.40   496.40     0  02:16        3.49        3.66       0.168
  YS02001622           JUNCTION      0.00   389.20     0  02:16           0        3.29       0.971
  YS02001633           JUNCTION    431.52   456.54     0  01:48        3.93        5.24       0.614
  YS02001649           JUNCTION      0.00  1004.27     0  01:49           0        8.28       0.453
  YS02001757           JUNCTION      0.00  2148.11     0  01:55           0        9.87       0.932
  YS02001895           JUNCTION      0.00   523.60     0  01:51           0        4.27       0.118
  YS02001625           JUNCTION      0.00   435.82     0  02:16           0        3.34       1.186
  YS02163301           JUNCTION      0.00   220.49     0  01:47           0        1.42       1.711
  YS02163601           JUNCTION      0.11   456.12     0  01:48      0.0031        5.11       0.589
  YS02164001           JUNCTION      0.00   455.31     0  01:48           0        5.09       0.396
  YS02001647           JUNCTION      0.00   846.70     0  02:58           0        7.48       0.378
  YSB1154              JUNCTION     46.91    46.91     0  01:52        0.18       0.181       0.806
  YSB6556              JUNCTION      0.00    46.64     0  01:53           0       0.182       0.696
  YSB1174              JUNCTION     39.22    39.22     0  01:50       0.134       0.134       0.962
  YSB1171              JUNCTION      0.00    84.01     0  01:52           0       0.322       2.011
  YS02006553           JUNCTION      0.00   717.82     0  03:35           0        7.29       0.212
  YS02006561           JUNCTION      0.00   982.94     0  02:15           0        11.5       0.007
  YS02006556           JUNCTION      0.00   717.92     0  03:35           0        7.29       0.153
  YS02006558           JUNCTION    590.63   984.29     0  02:15        4.24        11.5       0.041
  YS02001783           JUNCTION      0.00   982.64     0  02:14           0        11.5       0.020
  YS02001784           JUNCTION      1.06   983.71     0  02:15      0.0299        11.5       0.031
  YS02001786           JUNCTION      0.06   983.43     0  02:15     0.00159        11.5       0.030
  YS02001788           JUNCTION      0.07   983.70     0  02:12       0.002        11.5       0.019
  YS02001790           JUNCTION      0.15   983.82     0  02:11     0.00437        11.5       0.012
  YS02001791           JUNCTION      0.00   984.03     0  02:13           0        11.5       0.010
  YS02001793           JUNCTION      0.00   984.23     0  02:13           0        11.5      -0.047
  WSC                  OUTFALL       0.00  1341.36     0  02:05           0        19.5       0.000
  JK-storage           STORAGE       0.00   984.79     0  02:11           0        11.6      -8.153
  CC-storage           STORAGE       0.00  2148.65     0  01:55           0        5.84       1.131
  XR-storage           STORAGE    1054.62  1054.62     0  03:01        15.5        16.1      -0.004
  
  
  **********************
  Node Surcharge Summary
  **********************
  
  Surcharging occurs when water rises above the top of the highest conduit.
  ---------------------------------------------------------------------
                                               Max. Height   Min. Depth
                                   Hours       Above Crown    Below Rim
  Node                 Type      Surcharged         Meters       Meters
  ---------------------------------------------------------------------
  WS02004401           JUNCTION        0.81          0.306        1.354
  WS02004402           JUNCTION        0.84          0.294        1.446
  WS02004403           JUNCTION        0.84          0.270        1.760
  WS02004404           JUNCTION        1.24          0.313        2.467
  WS02004406           JUNCTION        1.07          0.202        2.248
  WS02004413           JUNCTION        0.37          0.031        2.169
  WS02004405           JUNCTION        1.15          0.281        2.519
  WS02006109           JUNCTION        2.79          0.935        0.885
  WS02006110           JUNCTION        1.47          0.633        1.217
  WS02006111           JUNCTION        0.29          0.217        1.653
  WS02006112           JUNCTION        1.58          0.646        1.034
  WS02006113           JUNCTION        0.32          0.236        1.694
  WS02006115           JUNCTION        0.71          0.297        1.953
  WS02006116           JUNCTION        0.75          0.281        2.009
  WS02006230           JUNCTION        1.18          0.897        0.673
  WS02006231           JUNCTION        1.40          0.903        0.627
  WS02006232           JUNCTION        2.52          1.001        0.479
  WS02006234           JUNCTION        2.15          0.877        0.363
  WS02006235           JUNCTION        2.29          0.886        0.404
  WS02006238           JUNCTION        2.33          0.893        0.537
  WS02006240           JUNCTION        1.78          0.731        0.659
  WS02006242           JUNCTION        1.85          0.725        0.095
  WS02006243           JUNCTION        1.09          0.584        0.186
  WS02006245           JUNCTION        1.00          0.517        0.333
  WS02006247           JUNCTION        0.99          0.505        0.255
  WS02006248           JUNCTION        0.87          0.380        0.000
  WS02006249           JUNCTION        0.90          0.390        0.000
  WS02006239           JUNCTION        2.05          0.795        0.495
  WS02006251           JUNCTION        0.24          0.310        0.870
  WS02006252           JUNCTION        0.81          0.391        0.709
  WS02006253           JUNCTION        0.48          0.481        1.999
  WS02006256           JUNCTION        6.92          2.050        0.000
  WS02006228           JUNCTION        2.77          1.109        1.091
  HS02004817           JUNCTION        0.14          0.011        1.729
  YS02001748           JUNCTION        6.04          0.327        0.863
  YS02001751           JUNCTION        6.08          0.600        0.600
  YS02001754           JUNCTION        6.14          0.814        0.336
  YS02001762           JUNCTION        6.19          1.058        0.092
  YS02001765           JUNCTION        6.18          1.002        0.098
  YS02001767           JUNCTION        6.18          0.962        0.068
  YS02001770           JUNCTION        6.18          0.911        0.009
  YS02001774           JUNCTION        6.19          0.991        0.059
  YS02001779           JUNCTION        6.13          0.680        0.000
  YS02001882           JUNCTION        1.80          0.668        0.162
  YS02001884           JUNCTION        1.82          0.692        0.178
  YS02001759           JUNCTION        6.20          1.102        0.108
  YS02001887           JUNCTION        1.87          0.768        0.182
  YS02001890           JUNCTION        1.90          0.760        0.000
  YS02001898           JUNCTION        1.78          0.540        0.200
  YS02001901           JUNCTION        1.85          0.679        0.191
  YS02001904           JUNCTION        1.84          0.641        0.209
  YS02001907           JUNCTION        2.41          0.950        0.000
  YS02001910           JUNCTION        1.93          0.871        0.229
  YS02001915           JUNCTION        1.80          0.735        0.265
  YS02001918           JUNCTION        1.65          0.527        0.283
  YS02001619           JUNCTION        6.09          0.572        0.038
  YS02001629           JUNCTION        6.09          0.469        0.001
  YS02001641           JUNCTION        6.18          0.936        0.164
  YS02001644           JUNCTION        6.18          0.920        0.000
  YS02001652           JUNCTION        6.15          0.901        0.229
  YS02001655           JUNCTION        6.10          0.748        0.452
  YS02001920           JUNCTION        1.68          0.672        0.468
  YS02001923           JUNCTION        0.01          0.291        0.529
  YS02001926           JUNCTION        0.01          0.543        0.357
  YS02001658           JUNCTION        6.05          0.553        0.747
  YS02001661           JUNCTION        0.10          0.454        0.936
  YS02001622           JUNCTION        6.10          0.568        0.052
  YS02001633           JUNCTION        6.17          0.934        0.126
  YS02001649           JUNCTION        6.19          1.050        0.000
  YS02001757           JUNCTION        6.23          1.201        0.009
  YS02001895           JUNCTION        1.79          0.567        0.183
  YS02001625           JUNCTION        6.16          0.780        0.000
  YS02163301           JUNCTION        6.17          0.882        0.148
  YS02163601           JUNCTION        6.20          0.988        0.092
  YS02164001           JUNCTION        6.17          0.920        0.180
  YS02001647           JUNCTION        6.15          0.801        0.099
  YS02006553           JUNCTION        2.47          0.971        0.219
  YS02006561           JUNCTION        1.69          0.305        0.845
  YS02006556           JUNCTION        2.10          0.894        0.456
  YS02006558           JUNCTION        2.08          0.880        0.520
  YS02001783           JUNCTION        1.94          0.891        0.709
  YS02001784           JUNCTION        1.92          0.802        0.688
  YS02001786           JUNCTION        1.86          0.661        0.769
  YS02001788           JUNCTION        1.81          0.593        0.887
  YS02001790           JUNCTION        2.61          1.157        0.000
  YS02001791           JUNCTION        2.69          1.920        0.000
  YS02001793           JUNCTION        2.93          1.980        0.620
  
  
  *********************
  Node Flooding Summary
  *********************
  
  Flooding refers to all water that overflows a node, whether it ponds or not.
  --------------------------------------------------------------------------
                                                             Total   Maximum
                                 Maximum   Time of Max       Flood    Ponded
                        Hours       Rate    Occurrence      Volume     Depth
  Node                 Flooded       LPS   days hr:min    10^6 ltr    Meters
  --------------------------------------------------------------------------
  WS02006248              0.16     59.07      0  01:57       0.013     0.000
  WS02006249              0.46    221.17      0  02:30       0.140     0.000
  WS02006256              4.15    829.25      0  02:00       7.883     0.000
  YS02001779              3.92    765.36      0  02:53       4.229     0.000
  YS02001890              0.81    161.67      0  02:12       0.274     0.000
  YS02001907              1.53    716.11      0  02:16       2.680     0.000
  YS02001644              5.93   1608.13      0  02:47      14.397     0.000
  YS02001649              0.21     68.97      0  02:53       0.031     0.000
  YS02001625              2.13    435.82      0  02:16       1.967     0.000
  YS02001790              0.01    241.99      0  04:29       0.001     0.000
  YS02001791              0.01    258.09      0  01:43       0.000     0.000
  JK-storage              0.82    863.57      0  01:50       1.117     0.000
  XR-storage              4.67    674.59      0  03:01       5.098     0.000
  
  
  **********************
  Storage Volume Summary
  **********************
  
  --------------------------------------------------------------------------------------------------
                         Average     Avg  Evap Exfil       Maximum     Max    Time of Max    Maximum
                          Volume    Pcnt  Pcnt  Pcnt        Volume    Pcnt     Occurrence    Outflow
  Storage Unit           1000 m3    Full  Loss  Loss       1000 m3    Full    days hr:min        LPS
  --------------------------------------------------------------------------------------------------
  JK-storage               0.172      59     0     0         0.291     100       0  01:44     983.00
  CC-storage               3.355      21     0     0         4.067      26       0  02:49     399.55
  XR-storage               0.839      91     0     0         0.926     100       0  02:07     380.00
  
  
  ***********************
  Outfall Loading Summary
  ***********************
  
  ---------------------------------------------------------------------------------------------------------------------------------
                         Flow       Avg       Max       Total         Total         Total         Total         Total         Total
                         Freq      Flow      Flow      Volume           COD            SS            TN            TP         NH4-N
  Outfall Node           Pcnt       LPS       LPS    10^6 ltr            kg            kg            kg            kg            kg
  ---------------------------------------------------------------------------------------------------------------------------------
  WSC                  100.00    760.05   1341.36      19.484      2434.250      4333.044       139.203        16.059        83.301
  ---------------------------------------------------------------------------------------------------------------------------------
  System               100.00    760.05   1341.36      19.484      2434.250      4333.044       139.203        16.059        83.301
  
  
  ********************
  Link Flow Summary
  ********************
  
  -----------------------------------------------------------------------------
                                 Maximum  Time of Max   Maximum    Max/    Max/
                                  |Flow|   Occurrence   |Veloc|    Full    Full
  Link                 Type          LPS  days hr:min     m/sec    Flow   Depth
  -----------------------------------------------------------------------------
  WS02003066WSF200     CONDUIT    955.15     0  01:58      3.01    0.16    0.32
  WS02006287WS02006284 CONDUIT    735.71     0  01:54      2.45    0.34    0.41
  WS02006284WS02006280 CONDUIT    736.07     0  01:54      2.68    0.31    0.38
  WS02006280WS02006229 CONDUIT    758.72     0  01:55      4.30    0.16    0.58
  WS02006229WS02006228 CONDUIT    937.60     0  01:56      1.87    3.11    1.00
  WS02006256WS02006235 CONDUIT    264.10     0  00:42      3.74    2.80    1.00
  WS02006253WS02006251 CONDUIT    193.06     0  01:54      0.76    0.58    1.00
  WS02006252WS02006251 CONDUIT    399.64     0  06:10      3.18    1.47    1.00
  WS02006251WS02006249 CONDUIT    466.09     0  02:30      1.21    1.34    1.00
  WS02006249WS02006248 CONDUIT    370.60     0  06:10      1.19    2.03    1.00
  WS02006248WS02006247 CONDUIT    366.09     0  06:11      1.17    0.80    1.00
  WS02006247WS02006245 CONDUIT    361.54     0  06:11      1.14    2.87    1.00
  WS02006245WS02006243 CONDUIT    355.99     0  06:11      1.19    1.05    1.00
  WS02006243WS02006242 CONDUIT    347.30     0  06:11      1.07    0.74    1.00
  WS02006242WS02006240 CONDUIT    338.69     0  06:12      1.02    1.35    1.00
  WS02006240WS02006239 CONDUIT    328.17     0  06:12      1.07    1.03    1.00
  WS02006239WS02006238 CONDUIT    320.12     0  06:12      0.96    1.02    1.00
  WS02006238WS02006235 CONDUIT    317.25     0  06:13      1.05    0.71    1.00
  WS02006235WS02006234 CONDUIT    484.58     0  06:33      1.26    5.11    1.00
  WS02006234WS02006232 CONDUIT    484.55     0  06:33      1.26    0.98    1.00
  WS02006232WS02006231 CONDUIT    484.70     0  06:33      1.26    1.02    1.00
  WS02006231WS02006230 CONDUIT    491.72     0  06:32      1.35    7.46    1.00
  WS02006230WS02006229 CONDUIT    494.13     0  06:34      1.28   11.00    1.00
  WS02006228WS02006109 CONDUIT    937.68     0  01:56      1.87    4.10    1.00
  WS02006116WS02004401 CONDUIT    968.18     0  01:56      1.23    1.33    1.00
  WS02006115WS02006116 CONDUIT    968.06     0  01:56      1.23    1.24    1.00
  WS02006113WS02006111 CONDUIT    938.09     0  01:56      2.61    1.12    1.00
  WS02006112WS02006115 CONDUIT    967.01     0  01:56      1.23    0.57    1.00
  WS02006111WS02006112 CONDUIT    938.33     0  01:56      1.87    0.45    1.00
  WS02006110WS02006113 CONDUIT    938.52     0  01:56      1.87    0.85    1.00
  WS02006109WS02006110 CONDUIT    938.77     0  01:56      1.87    1.80    1.00
  WS02004411WS02004412 CONDUIT    953.92     0  01:58      1.26    1.36    0.93
  WS02004401WS02004402 CONDUIT    968.18     0  01:56      1.23    1.16    1.00
  WS02004413WS02003067 CONDUIT    954.02     0  01:58      1.57    0.41    0.72
  WS02004412WS02004413 CONDUIT    953.85     0  01:58      1.23    0.64    0.96
  WS02004410WS02004411 CONDUIT    952.27     0  01:58      1.24    1.30    0.95
  WS02004409WS02004410 CONDUIT    957.15     0  01:57      1.24    1.24    0.97
  WS02004407WS02004409 CONDUIT    968.37     0  01:56      1.73    0.34    0.69
  WS02004406WS02004407 CONDUIT    970.89     0  01:56      1.65    0.43    0.70
  WS02004405WS02004406 CONDUIT    970.23     0  01:56      1.24    1.91    1.00
  WS02004404WS02004405 CONDUIT    970.40     0  01:56      1.24    9.51    1.00
  WS02004403WS02004404 CONDUIT    969.04     0  01:56      1.23    0.70    1.00
  WS02004402WS02004403 CONDUIT    968.96     0  01:56      1.23    1.39    1.00
  WS02004139WS02001211 CONDUIT    382.61     0  02:26      0.90    0.48    0.64
  WS02004138WS02004139 CONDUIT    394.13     0  00:00      3.62    0.08    0.47
  WS02003067WS02003066 CONDUIT    954.68     0  01:58      1.66    0.31    0.51
  WS02001213WS02003059 CONDUIT    397.18     0  02:44      0.89    0.66    0.87
  WS02001212WS02001213 CONDUIT    394.64     0  02:25      1.32    0.61    0.56
  WS02001211WS02001212 CONDUIT    392.51     0  02:26      0.78    0.30    0.71
  WS02003072WS02003073 CONDUIT   1339.19     0  02:04      1.96    2.89    0.58
  WS02003069WS02003072 CONDUIT   1338.91     0  02:04      1.82    0.64    0.62
  WS02003060WS02003069 CONDUIT   1338.62     0  02:03      2.03    0.52    0.57
  WS02003059WS02003060 CONDUIT    400.60     0  02:44      0.95    0.26    0.77
  HS02004901HS02004770 CONDUIT     36.84     0  01:52      0.10    0.14    0.54
  HS02004876HS02004881 CONDUIT    139.06     0  01:54      1.26    1.48    0.16
  HS02004870HS02004876 CONDUIT    112.62     0  01:54      0.85    0.07    0.19
  HS02004842HS02004848 CONDUIT     18.18     0  02:06      0.08    0.01    0.34
  HS02004837HS02004842 CONDUIT     18.64     0  02:07      0.42    0.01    0.35
  HS02004830HS02004837 CONDUIT     67.83     0  01:54      0.68    0.07    0.14
  HS02004824HS02004830 CONDUIT     68.05     0  01:56      0.62    0.09    0.18
  HS02004817HS02004824 CONDUIT    136.29     0  01:57      0.32    0.06    0.60
  HS02004770HS02004777 CONDUIT    189.68     0  01:52      0.49    0.35    0.55
  HS02004799HS02004480 CONDUIT    470.62     0  01:53      1.09    0.59    0.62
  HS02004792HS02004799 CONDUIT    430.86     0  01:53      1.22    0.26    0.50
  HS02004788HS02004792 CONDUIT    248.72     0  01:54      1.29    0.16    0.28
  HS02004785HS02004788 CONDUIT    189.52     0  01:53      0.92    1.43    0.30
  HS02004777HS02004785 CONDUIT    189.40     0  01:53      0.59    0.23    0.46
  HS02004480HS02004478 CONDUIT    554.35     0  01:53      1.59    2.33    0.50
  HS02004479HS02004480 CONDUIT     83.71     0  01:53      0.37    0.08    0.59
  HS02004862HS02004870 CONDUIT     86.17     0  01:55      0.82    0.09    0.15
  HS02004848HS02004852 CONDUIT     40.37     0  01:54      0.54    0.05    0.11
  HS02004856HS02004862 CONDUIT     60.18     0  01:54      0.61    0.06    0.14
  HS02004852HS02004856 CONDUIT     40.43     0  01:55      0.35    0.05    0.17
  HS02004802HS02004478 CONDUIT    184.70     0  01:57      0.53    0.16    0.50
  HS02004478WS02006287 CONDUIT    735.62     0  01:54      2.18    0.21    0.38
  HS02004817HS02004807 CONDUIT    137.09     0  01:57      0.26    0.08    0.77
  HS02004807HS02004802 CONDUIT    183.91     0  01:56      0.47    0.35    0.56
  YS02001759YS02001757 CONDUIT    877.76     0  01:56      1.12    0.62    1.00
  YS02001762YS02001759 CONDUIT    434.46     0  01:55      0.55    0.50    1.00
  YS02001765YS02001762 CONDUIT    433.26     0  01:55      0.55    0.41    1.00
  YS02001770YS02001767 CONDUIT    433.74     0  01:55      0.55    1.72    1.00
  YS02001774YS02001770 CONDUIT    765.35     0  02:53      0.97    0.49    1.00
  YS02001779YS02001774 CONDUIT    765.36     0  02:53      0.97    0.39    1.00
  YS02001649YS02001757 CONDUIT   1002.94     0  01:49      1.28    0.61    1.00
  YS02001767YS02001765 CONDUIT    433.85     0  01:55      0.55    0.55    1.00
  YS02006561YS02001783 CONDUIT    982.64     0  02:14      2.14    0.51    1.00
  YS02001783YS02001784 CONDUIT    982.65     0  02:15      1.95    1.35    1.00
  YS02001784YS02001785 CONDUIT    983.38     0  02:15      1.96    2.29    1.00
  YS02001788YS02001790 CONDUIT    983.67     0  02:11      2.44    0.72    1.00
  YS02001790YS02001791 CONDUIT    984.03     0  02:13      2.91    1.07    1.00
  YS02001791YS02001793 CONDUIT    984.23     0  02:13      5.76    0.42    1.00
  YS02001910YS02001907 CONDUIT    654.26     0  01:52      0.83    0.37    1.00
  YS02001786YS02001788 CONDUIT    983.63     0  02:12      2.31    1.90    1.00
  YS02001915YS02001910 CONDUIT    653.84     0  01:52      0.83    0.32    1.00
  YS02001918YS02001915 CONDUIT    374.13     0  01:52      0.49    0.21    1.00
  YS02001923YS02001920 CONDUIT    369.46     0  01:52      0.82    0.17    1.00
  YS02001926YS02001923 CONDUIT    310.25     0  01:53      0.92    0.44    1.00
  YS02001929YS02001926 CONDUIT    260.55     0  01:52      0.98    0.12    0.99
  YS02001920YS02001918 CONDUIT    373.21     0  01:52      0.77    0.36    1.00
  YS02001629YS02163301 CONDUIT    220.49     0  01:47      0.28    0.27    1.00
  YS02001619YS02001622 CONDUIT    389.20     0  02:16      0.74    0.57    1.00
  YS02001622YS02001625 CONDUIT    388.64     0  02:16      0.49    0.21    1.00
  YS02001625YS02001629 CONDUIT    220.75     0  01:48      0.29    0.10    1.00
  YS02163301YS02001633 CONDUIT    223.24     0  01:47      0.28    0.21    1.00
  YS02163601YS02164001 CONDUIT    455.31     0  01:48      0.58    0.40    1.00
  YS02164001YS02001641 CONDUIT    455.41     0  01:48      0.58    0.62    1.00
  YS02001641YS02001644 CONDUIT    456.19     0  01:48      0.58    1.47    1.00
  YS02001647YS02001649 CONDUIT    846.70     0  02:58      1.08    0.45    1.00
  YS02006553YS02006556 CONDUIT    717.92     0  03:35      0.91    0.61    1.00
  YS02006556YS02006558 CONDUIT    718.11     0  03:35      0.91    0.57    1.00
  YSB6556YSB1171       CONDUIT     46.62     0  01:54      0.14    0.05    0.84
  YS02001907YS02006553 CONDUIT    717.82     0  03:35      0.80    0.84    1.00
  YS02006558YS02006561 CONDUIT    982.94     0  02:15      3.48    2.17    1.00
  YS02001633YS02163601 CONDUIT    456.01     0  01:48      0.58    0.48    1.00
  YS02001644YS02001647 CONDUIT    846.70     0  02:58      1.08    0.50    1.00
  YS02001745YS02001748 CONDUIT    451.37     0  02:16      1.67    0.17    0.98
  YS02001748YS02001751 CONDUIT    450.45     0  02:16      1.21    0.23    1.00
  YS02001751YS02001754 CONDUIT    450.50     0  02:16      1.02    0.22    1.00
  YS02001754YS02001757 CONDUIT    450.35     0  02:16      0.57    0.18    1.00
  YS02001882YS02001884 CONDUIT     61.46     0  01:48      0.16    0.07    1.00
  YS02001884YS02001887 CONDUIT     71.99     0  01:46      0.12    0.10    1.00
  YS02001890YS02001895 CONDUIT    523.60     0  01:51      0.67    0.24    1.00
  YS02001895YS02001898 CONDUIT    524.84     0  01:51      0.67    0.91    1.00
  YS02001898YS02001901 CONDUIT    525.22     0  01:51      0.67    0.34    1.00
  YS02001901YS02001904 CONDUIT    526.22     0  01:51      0.67    0.82    1.00
  YS02001904YS02001907 CONDUIT    526.50     0  01:51      0.67    0.18    1.00
  YS02001887YS02001890 CONDUIT    677.24     0  02:14      0.86    1.16    1.00
  YS02001652YS02001649 CONDUIT    520.66     0  02:09      0.71    0.26    1.00
  YS02001655YS02001652 CONDUIT    519.15     0  02:09      1.09    0.25    1.00
  YS02001658YS02001655 CONDUIT    517.90     0  02:09      1.41    0.22    1.00
  YS02001661YS02001658 CONDUIT    524.85     0  02:02      1.78    0.21    1.00
  YS02001664YS02001661 CONDUIT    758.60     0  01:53      1.69    0.24    0.77
  YSB1154YSB6556       CONDUIT     46.64     0  01:53      0.15    0.08    0.75
  YSB1174YSB1171       CONDUIT     38.39     0  01:50      0.11    0.06    0.87
  YSB1171HS02004479    CONDUIT     83.75     0  01:53      0.54    0.06    0.70
  HS02004881HS02006253 CONDUIT    157.97     0  01:54      2.75    0.03    0.54
  YS02001793JiankangQianchi CONDUIT    984.79     0  02:11     16.45    0.08    1.00
  YS02001757CaochengTiaoxuchi CONDUIT   2148.65     0  01:55      3.55    0.94    1.00
  WSF200WS02003060     CONDUIT    955.97     0  01:58      1.97    0.21    0.45
  1                    CONDUIT   1341.36     0  02:05      3.59    0.47    0.48
  CC-Pump-1            PUMP       200.00     0  03:30              1.00
  CC-Pump-2            PUMP       199.78     0  02:30              1.00
  JK-Pump-1            PUMP       300.00     0  02:00              1.00
  JK-Pump-2            PUMP       683.00     0  02:00              1.00
  XR-Pump-1            PUMP        95.00     0  00:00              1.00
  XR-Pump-2            PUMP        95.00     0  00:00              1.00
  XR-Pump-3            PUMP        95.00     0  00:00              1.00
  XR-Pump-4            PUMP        95.00     0  00:00              1.00
  
  
  ***************************
  Flow Classification Summary
  ***************************
  
  -------------------------------------------------------------------------------------
                      Adjusted    ---------- Fraction of Time in Flow Class ---------- 
                       /Actual         Up    Down  Sub   Sup   Up    Down  Norm  Inlet 
  Conduit               Length    Dry  Dry   Dry   Crit  Crit  Crit  Crit  Ltd   Ctrl  
  -------------------------------------------------------------------------------------
  WS02003066WSF200        1.00   0.02  0.05  0.00  0.00  0.93  0.00  0.00  0.58  0.00
  WS02006287WS02006284    1.00   0.03  0.02  0.00  0.53  0.42  0.00  0.00  0.63  0.00
  WS02006284WS02006280    1.00   0.04  0.00  0.00  0.00  0.00  0.00  0.96  0.00  0.00
  WS02006280WS02006229    1.00   0.04  0.00  0.00  0.02  0.05  0.00  0.88  0.03  0.00
  WS02006229WS02006228    1.00   0.00  0.00  0.00  1.00  0.00  0.00  0.00  0.00  0.00
  WS02006256WS02006235    1.00   0.02  0.00  0.00  0.97  0.00  0.00  0.00  0.00  0.00
  WS02006253WS02006251    1.00   0.01  0.02  0.00  0.95  0.00  0.01  0.00  0.00  0.00
  WS02006252WS02006251    1.00   0.12  0.00  0.00  0.08  0.00  0.80  0.00  0.00  0.00
  WS02006251WS02006249    1.00   0.00  0.00  0.00  1.00  0.00  0.00  0.00  0.36  0.00
  WS02006249WS02006248    1.00   0.00  0.01  0.00  0.88  0.00  0.11  0.00  0.00  0.00
  WS02006248WS02006247    1.00   0.01  0.00  0.00  0.98  0.00  0.00  0.02  0.14  0.00
  WS02006247WS02006245    1.00   0.01  0.00  0.00  0.96  0.00  0.00  0.03  0.00  0.00
  WS02006245WS02006243    1.00   0.01  0.00  0.00  0.93  0.00  0.00  0.06  0.00  0.00
  WS02006243WS02006242    1.00   0.01  0.00  0.00  0.97  0.00  0.00  0.02  0.18  0.00
  WS02006242WS02006240    1.00   0.01  0.01  0.00  0.96  0.00  0.01  0.00  0.00  0.00
  WS02006240WS02006239    1.00   0.02  0.00  0.00  0.94  0.00  0.00  0.03  0.02  0.00
  WS02006239WS02006238    1.00   0.02  0.00  0.00  0.98  0.00  0.00  0.00  0.03  0.00
  WS02006238WS02006235    1.00   0.02  0.00  0.00  0.98  0.00  0.00  0.00  0.00  0.00
  WS02006235WS02006234    1.00   0.02  0.00  0.00  0.97  0.00  0.01  0.00  0.00  0.00
  WS02006234WS02006232    1.00   0.02  0.00  0.00  0.97  0.00  0.00  0.00  0.00  0.00
  WS02006232WS02006231    1.00   0.02  0.00  0.00  0.97  0.00  0.00  0.00  0.00  0.00
  WS02006231WS02006230    1.00   0.03  0.00  0.00  0.53  0.00  0.45  0.00  0.00  0.00
  WS02006230WS02006229    1.00   0.00  0.00  0.00  0.99  0.00  0.00  0.01  0.01  0.00
  WS02006228WS02006109    1.00   0.00  0.00  0.00  1.00  0.00  0.00  0.00  0.00  0.00
  WS02006116WS02004401    1.00   0.03  0.00  0.00  0.97  0.00  0.00  0.00  0.00  0.00
  WS02006115WS02006116    1.00   0.03  0.00  0.00  0.97  0.00  0.00  0.00  0.00  0.00
  WS02006113WS02006111    1.00   0.02  0.00  0.00  0.09  0.89  0.00  0.00  0.21  0.00
  WS02006112WS02006115    1.00   0.02  0.01  0.00  0.97  0.00  0.00  0.00  0.00  0.00
  WS02006111WS02006112    1.00   0.02  0.00  0.00  0.98  0.00  0.00  0.00  0.78  0.00
  WS02006110WS02006113    1.00   0.00  0.01  0.00  0.98  0.00  0.00  0.00  0.00  0.00
  WS02006109WS02006110    1.00   0.00  0.00  0.00  0.99  0.00  0.00  0.00  0.00  0.00
  WS02004411WS02004412    1.00   0.04  0.00  0.00  0.96  0.00  0.00  0.00  0.00  0.00
  WS02004401WS02004402    1.00   0.03  0.00  0.00  0.97  0.00  0.00  0.00  0.00  0.00
  WS02004413WS02003067    1.00   0.04  0.02  0.00  0.00  0.00  0.94  0.00  0.00  0.00
  WS02004412WS02004413    1.00   0.04  0.00  0.00  0.96  0.00  0.00  0.00  0.01  0.00
  WS02004410WS02004411    1.00   0.04  0.00  0.00  0.96  0.00  0.00  0.00  0.00  0.00
  WS02004409WS02004410    1.00   0.04  0.00  0.00  0.96  0.00  0.00  0.00  0.00  0.00
  WS02004407WS02004409    1.00   0.04  0.00  0.00  0.96  0.00  0.00  0.00  0.86  0.00
  WS02004406WS02004407    1.00   0.00  0.04  0.00  0.96  0.00  0.00  0.00  0.00  0.00
  WS02004405WS02004406    1.00   0.00  0.00  0.00  1.00  0.00  0.00  0.00  0.04  0.00
  WS02004404WS02004405    1.00   0.00  0.00  0.00  1.00  0.00  0.00  0.00  0.00  0.00
  WS02004403WS02004404    1.00   0.00  0.03  0.00  0.97  0.00  0.00  0.00  0.00  0.00
  WS02004402WS02004403    1.00   0.03  0.00  0.00  0.97  0.00  0.00  0.00  0.00  0.00
  WS02004139WS02001211    1.00   0.00  0.00  0.00  1.00  0.00  0.00  0.00  0.00  0.00
  WS02004138WS02004139    1.00   0.00  0.00  0.00  1.00  0.00  0.00  0.00  1.00  0.00
  WS02003067WS02003066    1.00   0.06  0.01  0.00  0.93  0.00  0.00  0.00  0.00  0.00
  WS02001213WS02003059    1.00   0.00  0.00  0.00  1.00  0.00  0.00  0.00  0.00  0.00
  WS02001212WS02001213    1.00   0.00  0.00  0.00  0.93  0.00  0.07  0.00  0.00  0.00
  WS02001211WS02001212    1.00   0.00  0.00  0.00  1.00  0.00  0.00  0.00  0.00  0.00
  WS02003072WS02003073    1.00   0.00  0.00  0.00  0.00  0.00  0.00  1.00  0.00  0.00
  WS02003069WS02003072    1.00   0.00  0.00  0.00  1.00  0.00  0.00  0.00  0.06  0.00
  WS02003060WS02003069    1.00   0.00  0.00  0.00  0.99  0.01  0.00  0.00  0.05  0.00
  WS02003059WS02003060    1.00   0.00  0.00  0.00  1.00  0.00  0.00  0.00  0.00  0.00
  HS02004901HS02004770    1.00   0.04  0.00  0.00  0.96  0.00  0.00  0.00  0.00  0.00
  HS02004876HS02004881    1.00   0.01  0.00  0.00  0.88  0.11  0.00  0.00  0.00  0.00
  HS02004870HS02004876    1.00   0.00  0.00  0.00  1.00  0.00  0.00  0.00  0.95  0.00
  HS02004842HS02004848    1.00   0.00  0.04  0.00  0.96  0.00  0.00  0.00  0.56  0.00
  HS02004837HS02004842    1.00   0.00  0.00  0.00  1.00  0.00  0.00  0.00  0.11  0.00
  HS02004830HS02004837    1.00   0.00  0.00  0.00  1.00  0.00  0.00  0.00  0.99  0.00
  HS02004824HS02004830    1.00   0.00  0.00  0.00  1.00  0.00  0.00  0.00  0.03  0.00
  HS02004817HS02004824    1.00   0.00  0.00  0.00  1.00  0.00  0.00  0.00  0.92  0.00
  HS02004770HS02004777    1.00   0.00  0.04  0.00  0.96  0.00  0.00  0.00  0.02  0.00
  HS02004799HS02004480    1.00   0.00  0.01  0.00  0.95  0.00  0.04  0.00  0.00  0.00
  HS02004792HS02004799    1.00   0.00  0.00  0.00  1.00  0.00  0.00  0.00  0.98  0.00
  HS02004788HS02004792    1.00   0.00  0.00  0.00  1.00  0.00  0.00  0.00  0.98  0.00
  HS02004785HS02004788    1.00   0.00  0.00  0.00  1.00  0.00  0.00  0.00  0.00  0.00
  HS02004777HS02004785    1.00   0.00  0.00  0.00  1.00  0.00  0.00  0.00  0.11  0.00
  HS02004480HS02004478    1.00   0.04  0.00  0.00  0.63  0.00  0.00  0.32  0.00  0.00
  HS02004479HS02004480    1.00   0.01  0.00  0.00  0.99  0.00  0.00  0.00  0.11  0.00
  HS02004862HS02004870    1.00   0.00  0.00  0.00  1.00  0.00  0.00  0.00  0.03  0.00
  HS02004848HS02004852    1.00   0.04  0.00  0.00  0.96  0.00  0.00  0.00  0.79  0.00
  HS02004856HS02004862    1.00   0.00  0.05  0.00  0.95  0.00  0.00  0.00  0.84  0.00
  HS02004852HS02004856    1.00   0.04  0.00  0.00  0.96  0.00  0.00  0.00  0.77  0.00
  HS02004802HS02004478    1.00   0.04  0.00  0.00  0.96  0.00  0.00  0.00  0.02  0.00
  HS02004478WS02006287    1.00   0.05  0.00  0.00  0.70  0.25  0.00  0.00  0.62  0.00
  HS02004817HS02004807    1.00   0.00  0.04  0.00  0.96  0.00  0.00  0.00  0.01  0.00
  HS02004807HS02004802    1.00   0.04  0.00  0.00  0.95  0.00  0.00  0.00  0.00  0.00
  YS02001759YS02001757    1.00   0.00  0.00  0.00  1.00  0.00  0.00  0.00  0.15  0.00
  YS02001762YS02001759    1.00   0.00  0.00  0.00  1.00  0.00  0.00  0.00  0.02  0.00
  YS02001765YS02001762    1.00   0.00  0.00  0.00  1.00  0.00  0.00  0.00  0.13  0.00
  YS02001770YS02001767    1.00   0.00  0.00  0.00  1.00  0.00  0.00  0.00  0.00  0.00
  YS02001774YS02001770    1.00   0.00  0.04  0.00  0.96  0.00  0.00  0.00  0.02  0.00
  YS02001779YS02001774    1.00   0.00  0.00  0.00  1.00  0.00  0.00  0.00  0.17  0.00
  YS02001649YS02001757    1.00   0.00  0.00  0.00  1.00  0.00  0.00  0.00  0.15  0.00
  YS02001767YS02001765    1.00   0.00  0.00  0.00  1.00  0.00  0.00  0.00  0.00  0.00
  YS02006561YS02001783    1.00   0.05  0.00  0.00  0.46  0.49  0.00  0.00  0.45  0.00
  YS02001783YS02001784    1.00   0.00  0.05  0.00  0.95  0.00  0.00  0.00  0.00  0.00
  YS02001784YS02001785    1.00   0.00  0.00  0.00  1.00  0.00  0.00  0.00  0.16  0.00
  YS02001788YS02001790    1.00   0.00  0.00  0.00  0.50  0.50  0.00  0.00  0.36  0.00
  YS02001790YS02001791    1.00   0.00  0.00  0.00  0.46  0.54  0.00  0.00  0.41  0.00
  YS02001791YS02001793    1.00   0.00  0.00  0.00  0.50  0.50  0.00  0.00  0.02  0.00
  YS02001910YS02001907    1.00   0.00  0.00  0.00  0.99  0.00  0.00  0.01  0.12  0.00
  YS02001786YS02001788    1.00   0.00  0.00  0.00  0.48  0.52  0.00  0.00  0.00  0.00
  YS02001915YS02001910    1.00   0.00  0.00  0.00  0.99  0.01  0.00  0.00  0.13  0.00
  YS02001918YS02001915    1.00   0.00  0.00  0.00  0.99  0.00  0.00  0.00  0.50  0.00
  YS02001923YS02001920    1.00   0.00  0.00  0.00  1.00  0.00  0.00  0.00  0.74  0.00
  YS02001926YS02001923    1.00   0.00  0.02  0.00  0.28  0.00  0.70  0.00  0.00  0.00
  YS02001929YS02001926    1.00   0.00  0.04  0.00  0.96  0.00  0.00  0.00  0.65  0.00
  YS02001920YS02001918    1.00   0.00  0.00  0.00  1.00  0.00  0.00  0.00  0.00  0.00
  YS02001629YS02163301    1.00   0.05  0.00  0.00  0.95  0.00  0.00  0.00  0.00  0.00
  YS02001619YS02001622    1.00   0.04  0.00  0.00  0.96  0.00  0.00  0.00  0.00  0.00
  YS02001622YS02001625    1.00   0.04  0.00  0.00  0.96  0.00  0.00  0.00  0.03  0.00
  YS02001625YS02001629    1.00   0.04  0.01  0.00  0.93  0.00  0.02  0.00  0.00  0.00
  YS02163301YS02001633    1.00   0.00  0.05  0.00  0.95  0.00  0.00  0.00  0.00  0.00
  YS02163601YS02164001    1.00   0.00  0.02  0.00  0.98  0.00  0.00  0.00  0.00  0.00
  YS02164001YS02001641    1.00   0.00  0.02  0.00  0.98  0.00  0.00  0.00  0.06  0.00
  YS02001641YS02001644    1.00   0.00  0.00  0.00  1.00  0.00  0.00  0.00  0.00  0.00
  YS02001647YS02001649    1.00   0.00  0.05  0.00  0.95  0.00  0.00  0.00  0.01  0.00
  YS02006553YS02006556    1.00   0.00  0.00  0.00  1.00  0.00  0.00  0.00  0.03  0.00
  YS02006556YS02006558    1.00   0.00  0.00  0.00  1.00  0.00  0.00  0.00  0.00  0.00
  YSB6556YSB1171          1.00   0.01  0.03  0.00  0.96  0.00  0.00  0.00  0.00  0.00
  YS02001907YS02006553    1.00   0.00  0.01  0.00  0.99  0.00  0.00  0.00  0.00  0.00
  YS02006558YS02006561    1.00   0.05  0.00  0.00  0.28  0.67  0.00  0.00  0.45  0.00
  YS02001633YS02163601    1.00   0.00  0.00  0.00  1.00  0.00  0.00  0.00  0.15  0.00
  YS02001644YS02001647    1.00   0.00  0.05  0.00  0.95  0.00  0.00  0.00  0.00  0.00
  YS02001745YS02001748    1.00   0.00  0.00  0.00  0.92  0.00  0.00  0.08  0.01  0.00
  YS02001748YS02001751    1.00   0.00  0.00  0.00  0.97  0.03  0.00  0.00  0.14  0.00
  YS02001751YS02001754    1.00   0.00  0.00  0.00  0.94  0.00  0.00  0.06  0.01  0.00
  YS02001754YS02001757    1.00   0.00  0.00  0.00  1.00  0.00  0.00  0.00  0.17  0.00
  YS02001882YS02001884    1.00   0.05  0.00  0.00  0.95  0.00  0.00  0.00  0.00  0.00
  YS02001884YS02001887    1.00   0.02  0.02  0.00  0.96  0.00  0.00  0.00  0.00  0.00
  YS02001890YS02001895    1.00   0.00  0.05  0.00  0.95  0.00  0.00  0.00  0.00  0.00
  YS02001895YS02001898    1.00   0.05  0.00  0.00  0.94  0.00  0.01  0.00  0.00  0.00
  YS02001898YS02001901    1.00   0.05  0.00  0.00  0.95  0.00  0.00  0.00  0.01  0.00
  YS02001901YS02001904    1.00   0.05  0.00  0.00  0.95  0.00  0.00  0.00  0.00  0.00
  YS02001904YS02001907    1.00   0.00  0.05  0.00  0.95  0.00  0.00  0.00  0.00  0.00
  YS02001887YS02001890    1.00   0.00  0.00  0.00  0.99  0.00  0.01  0.00  0.00  0.00
  YS02001652YS02001649    1.00   0.00  0.00  0.00  1.00  0.00  0.00  0.00  0.15  0.00
  YS02001655YS02001652    1.00   0.00  0.00  0.00  0.94  0.00  0.00  0.06  0.01  0.00
  YS02001658YS02001655    1.00   0.00  0.04  0.00  0.93  0.03  0.00  0.00  0.02  0.00
  YS02001661YS02001658    1.00   0.04  0.00  0.00  0.92  0.04  0.00  0.00  0.01  0.00
  YS02001664YS02001661    1.00   0.04  0.00  0.00  0.92  0.03  0.00  0.00  0.10  0.00
  YSB1154YSB6556          1.00   0.04  0.00  0.00  0.96  0.00  0.00  0.00  0.01  0.00
  YSB1174YSB1171          1.00   0.01  0.01  0.00  0.97  0.00  0.00  0.00  0.00  0.00
  YSB1171HS02004479       1.00   0.01  0.00  0.00  0.98  0.00  0.00  0.00  0.10  0.00
  HS02004881HS02006253    1.00   0.02  0.00  0.00  0.49  0.05  0.00  0.44  0.35  0.00
  YS02001793JiankangQianchi    1.00   0.00  0.00  0.00  0.77  0.23  0.00  0.00  0.35  0.00
  YS02001757CaochengTiaoxuchi    1.00   0.00  0.07  0.00  0.90  0.03  0.00  0.00  0.00  0.00
  WSF200WS02003060        1.00   0.00  0.02  0.00  0.98  0.00  0.00  0.00  0.50  0.00
  1                       1.00   0.00  0.00  0.00  0.00  1.00  0.00  0.00  0.52  0.00
  
  
  *************************
  Conduit Surcharge Summary
  *************************
  
  ----------------------------------------------------------------------------
                                                           Hours        Hours 
                         --------- Hours Full --------   Above Full   Capacity
  Conduit                Both Ends  Upstream  Dnstream   Normal Flow   Limited
  ----------------------------------------------------------------------------
  WS02006229WS02006228        2.77      2.80      2.77      3.29         2.77
  WS02006256WS02006235        5.59      5.59      6.92      4.35         0.01
  WS02006253WS02006251        0.84      0.84      0.87      0.01         0.01
  WS02006252WS02006251        0.33      0.33      0.81      0.32         0.01
  WS02006251WS02006249        0.84      0.85      0.90      0.16         0.12
  WS02006249WS02006248        0.87      0.87      0.90      1.28         0.01
  WS02006248WS02006247        0.90      0.90      0.99      0.01         0.01
  WS02006247WS02006245        1.00      1.01      1.00      2.06         0.73
  WS02006245WS02006243        1.02      1.02      1.09      0.03         0.01
  WS02006243WS02006242        1.11      1.11      1.85      0.01         0.01
  WS02006242WS02006240        1.78      1.78      2.01      0.24         0.01
  WS02006240WS02006239        1.84      1.84      2.05      0.03         0.01
  WS02006239WS02006238        2.21      2.21      2.33      0.03         0.01
  WS02006238WS02006235        2.32      2.32      2.40      0.01         0.02
  WS02006235WS02006234        2.15      2.15      2.29      5.18         0.01
  WS02006234WS02006232        2.22      2.22      2.51      0.01         0.01
  WS02006232WS02006231        1.40      1.40      2.51      0.04         0.01
  WS02006231WS02006230        1.18      1.18      1.46      5.56         0.02
[...]
  YS02001779YS02001774        6.13      6.13      6.19      0.01         0.01
  YS02001649YS02001757        6.19      6.19      6.23      0.01         0.01
  YS02001767YS02001765        6.18      6.18      6.18      0.01         0.01
  YS02006561YS02001783        1.69      1.69      1.94      0.01         0.01
  YS02001783YS02001784        1.92      1.94      1.92      2.12         1.90
  YS02001784YS02001785        1.86      1.92      1.86      2.90         1.86
  YS02001788YS02001790        1.81      1.81      2.61      0.01         0.01
  YS02001790YS02001791        2.61      2.61      2.69      1.82         1.80
  YS02001791YS02001793        2.69      2.69      3.01      0.01         0.01
  YS02001910YS02001907        1.93      1.93      2.41      0.01         0.01
  YS02001786YS02001788        1.81      1.86      1.81      2.54         1.81
  YS02001915YS02001910        1.80      1.80      1.93      0.01         0.01
  YS02001918YS02001915        1.65      1.65      1.80      0.01         0.01
  YS02001923YS02001920        1.49      1.49      1.68      0.01         0.01
  YS02001926YS02001923        0.01      0.01      0.01      0.01         0.01
  YS02001929YS02001926        0.01      0.01      0.01      0.01         0.01
  YS02001920YS02001918        1.65      1.65      1.68      0.01         0.01
  YS02001629YS02163301        6.16      6.16      6.17      0.01         0.01
  YS02001619YS02001622        6.09      6.09      6.10      0.01         0.02
  YS02001622YS02001625        6.10      6.10      6.16      0.01         0.01
  YS02001625YS02001629        6.09      6.09      6.16      0.01         0.01
  YS02163301YS02001633        6.17      6.17      6.18      0.01         0.01
  YS02163601YS02164001        6.17      6.17      6.20      0.01         0.01
  YS02164001YS02001641        6.17      6.17      6.18      0.01         0.02
  YS02001641YS02001644        6.18      6.18      6.18      2.38         2.48
  YS02001647YS02001649        6.15      6.15      6.19      0.01         0.01
  YS02006553YS02006556        2.10      2.10      2.47      0.01         0.01
  YS02006556YS02006558        2.22      2.22      2.53      0.01         0.01
  YSB6556YSB1171              0.01      0.01      0.30      0.01         0.01
  YS02001907YS02006553        2.92      2.92      3.15      0.01         0.01
  YS02006558YS02006561        1.78      2.08      1.78      2.77         1.78
  YS02001633YS02163601        6.17      6.17      6.20      0.01         0.01
  YS02001644YS02001647        6.15      6.15      6.18      0.01         0.01
  YS02001745YS02001748        0.01      0.01      6.04      0.01         0.01
  YS02001748YS02001751        6.05      6.05      6.08      0.01         0.01
  YS02001751YS02001754        6.08      6.08      6.14      0.01         0.01
  YS02001754YS02001757        6.15      6.15      6.23      0.01         0.01
  YS02001882YS02001884        1.80      1.80      1.82      0.01         0.01
  YS02001884YS02001887        1.85      1.85      1.87      0.01         0.01
  YS02001890YS02001895        1.79      1.79      1.95      0.01         0.01
  YS02001895YS02001898        1.78      1.78      1.79      0.01         0.01
  YS02001898YS02001901        1.79      1.79      1.85      0.01         0.01
  YS02001901YS02001904        1.84      1.84      1.85      0.01         0.01
  YS02001904YS02001907        1.84      1.84      2.49      0.01         0.01
  YS02001887YS02001890        1.90      1.90      1.92      0.52         0.01
  YS02001652YS02001649        6.16      6.16      6.19      0.01         0.01
  YS02001655YS02001652        6.10      6.10      6.15      0.01         0.01
  YS02001658YS02001655        6.05      6.05      6.10      0.01         0.01
  YS02001661YS02001658        0.08      0.08      6.05      0.01         0.01
  YS02001664YS02001661        0.01      0.01      1.67      0.01         0.01
  HS02004881HS02006253        0.01      0.01      0.48      0.01         0.01
  YS02001793JiankangQianchi        2.93      2.93      5.19      0.01         0.01
  YS02001757CaochengTiaoxuchi        5.75      5.75      6.23      0.01         0.01
  
  
  ***************
  Pumping Summary
  ***************
  
  ---------------------------------------------------------------------------------------------------------
                                                  Min       Avg       Max     Total     Power    % Time Off
                        Percent   Number of      Flow      Flow      Flow    Volume     Usage    Pump Curve
  Pump                 Utilized   Start-Ups       LPS       LPS       LPS  10^6 ltr     Kw-hr    Low   High
  ---------------------------------------------------------------------------------------------------------
  CC-Pump-1               40.41           7      0.00    128.31    200.00     1.320      0.83    0.0    0.0
  CC-Pump-2               12.76           2      0.00    102.59    199.78     0.360      0.35    0.0    0.0
  JK-Pump-1               59.59           4      0.00    248.51    300.00     3.813     50.93    0.0    0.0
  JK-Pump-2               59.59           4      0.00    516.85    683.00     7.574     90.40    0.0   97.2
  XR-Pump-1               97.88           2      0.00     94.38     95.00     2.565     20.48    0.0    0.0
  XR-Pump-2               97.88           2      0.00     94.38     95.00     2.565     20.48    0.0    0.0
  XR-Pump-3               97.88           2      0.00     92.45     95.00     2.508     19.34    0.0    0.0
  XR-Pump-4               97.88           2      0.00     92.45     95.00     2.508     19.34    0.0    0.0
  
  
  ***************************
  Link Pollutant Load Summary
  ***************************
  
  ------------------------------------------------------------------------------------------
                                 COD            SS            TN            TP         NH4-N
  Link                            kg            kg            kg            kg            kg
  ------------------------------------------------------------------------------------------
  WS02003066WSF200           930.534      1800.612        22.779         1.942        11.806
  WS02006287WS02006284       438.070       854.503        12.586         1.181         6.763
  WS02006284WS02006280       438.566       855.298        12.633         1.187         6.792
  WS02006280WS02006229       438.562       855.334        12.631         1.186         6.791
  WS02006229WS02006228       919.933      1780.609        22.259         1.880        11.499
  WS02006256WS02006235       242.712       460.305         4.998         0.370         2.475
  WS02006253WS02006251        82.783       166.962         1.729         0.125         0.844
  WS02006252WS02006251       185.977       358.518         3.510         0.242         1.687
  WS02006251WS02006249       264.183       516.971         5.153         0.362         2.491
  WS02006249WS02006248       245.204       478.326         4.786         0.336         2.314
  WS02006248WS02006247       244.372       476.433         4.774         0.336         2.309
  WS02006247WS02006245       245.023       477.700         4.789         0.337         2.317
  WS02006245WS02006243       245.777       479.258         4.805         0.338         2.325
  WS02006243WS02006242       247.229       481.910         4.841         0.341         2.344
  WS02006242WS02006240       248.000       483.104         4.848         0.341         2.345
  WS02006240WS02006239       248.936       484.468         4.872         0.343         2.357
  WS02006239WS02006238       250.294       486.434         4.912         0.346         2.379
  WS02006238WS02006235       251.033       487.360         4.934         0.348         2.391
  WS02006235WS02006234       483.961       930.226         9.701         0.700         4.748
  WS02006234WS02006232       483.650       929.627         9.696         0.700         4.746
  WS02006232WS02006231       483.283       928.918         9.689         0.700         4.742
  WS02006231WS02006230       483.253       928.850         9.691         0.700         4.744
  WS02006230WS02006229       483.586       929.501         9.708         0.702         4.753
  WS02006228WS02006109       918.977      1778.885        22.217         1.875        11.474
  WS02006116WS02004401       937.928      1814.081        23.074         1.973        11.976
  WS02006115WS02006116       939.320      1816.676        23.120         1.978        12.001
  WS02006113WS02006111       925.092      1788.391        22.920         1.965        11.919
  WS02006112WS02006115       940.632      1819.101        23.167         1.983        12.028
  WS02006111WS02006112       924.236      1786.670        22.896         1.963        11.906
  WS02006110WS02006113       925.460      1788.959        22.938         1.967        11.929
  WS02006109WS02006110       926.724      1791.115        23.004         1.974        11.968
  WS02004411WS02004412       931.911      1803.066        22.856         1.951        11.852
  WS02004401WS02004402       936.473      1811.406        23.021         1.968        11.945
  WS02004413WS02003067       930.547      1800.627        22.784         1.943        11.809
  WS02004412WS02004413       931.527      1802.396        22.831         1.948        11.837
  WS02004410WS02004411       932.170      1803.509        22.873         1.953        11.863
  WS02004409WS02004410       932.580      1804.238        22.896         1.956        11.876
  WS02004407WS02004409       932.739      1804.495        22.909         1.957        11.884
  WS02004406WS02004407       932.516      1804.044        22.906         1.957        11.883
  WS02004405WS02004406       933.899      1806.436        22.991         1.967        11.934
  WS02004404WS02004405       934.483      1807.529        23.004         1.968        11.941
  WS02004403WS02004404       934.060      1806.999        22.926         1.958        11.891
  WS02004402WS02004403       935.218      1809.116        22.972         1.963        11.917
  WS02004139WS02001211      1360.676      2306.063       102.068        12.312        62.493
  WS02004138WS02004139      1366.738      2316.287       102.519        12.366        62.769
  WS02003067WS02003066       930.616      1800.765        22.783         1.943        11.808
  WS02001213WS02003059      1394.855      2359.634       105.627        12.761        64.730
  WS02001212WS02001213      1403.471      2374.040       106.302        12.843        65.146
  WS02001211WS02001212      1405.334      2377.082       106.463        12.863        65.246
  WS02003072WS02003073      2427.671      4323.042       138.441        15.961        82.818
  WS02003069WS02003072      2432.438      4330.841       138.856        16.013        83.076
  WS02003060WS02003069      2434.701      4334.709       139.012        16.031        83.170
  WS02003059WS02003060      1392.355      2355.319       105.466        12.742        64.633
  HS02004901HS02004770        19.399        38.442         0.369         0.028         0.174
  HS02004876HS02004881        64.838       131.147         1.382         0.100         0.674
  HS02004870HS02004876        49.299        99.613         1.094         0.080         0.537
  HS02004842HS02004848         9.278        18.136         0.191         0.013         0.089
  HS02004837HS02004842        13.927        25.528         0.662         0.072         0.384
  HS02004830HS02004837        81.308       145.731         4.858         0.568         2.931
  HS02004824HS02004830        82.101       147.035         4.931         0.577         2.976
  HS02004817HS02004824       118.563       221.802         5.667         0.624         3.333
  HS02004770HS02004777        73.683       147.823         1.507         0.104         0.700
  HS02004799HS02004480       235.076       460.623         5.679         0.484         2.882
  HS02004792HS02004799       214.139       417.323         5.330         0.464         2.722
  HS02004788HS02004792       116.315       227.340         3.333         0.303         1.756
  HS02004785HS02004788        75.101       150.089         1.654         0.123         0.793
  HS02004777HS02004785        74.432       149.017         1.592         0.115         0.755
  HS02004480HS02004478       294.415       579.906         6.704         0.559         3.370
  HS02004479HS02004480        62.983       125.167         1.335         0.113         0.681
  HS02004862HS02004870        37.530        74.846         0.862         0.066         0.425
  HS02004848HS02004852        15.821        31.380         0.320         0.022         0.149
  HS02004856HS02004862        25.850        52.196         0.514         0.035         0.242
  HS02004852HS02004856        15.835        31.403         0.320         0.022         0.149
  HS02004802HS02004478       144.591       276.102         5.948         0.629         3.432
  HS02004478WS02006287       438.220       854.719        12.602         1.183         6.773
  HS02004817HS02004807       117.202       219.655         5.526         0.607         3.245
  HS02004807HS02004802       144.757       276.354         5.979         0.633         3.453
  YS02001759YS02001757       402.411       762.240         7.846         0.551         3.827
  YS02001762YS02001759       241.987       458.328         4.873         0.345         2.394
  YS02001765YS02001762       243.958       463.296         4.931         0.351         2.425
  YS02001770YS02001767       248.423       475.071         4.884         0.337         2.379
  YS02001774YS02001770       487.421       951.922         9.428         0.633         4.563
  YS02001779YS02001774       486.900       950.995         9.496         0.644         4.611
  YS02001649YS02001757       501.457       936.116        10.047         0.688         4.855
  YS02001767YS02001765       246.435       469.214         4.996         0.356         2.460
  YS02006561YS02001783      1263.261      2384.967        26.062         1.925        12.899
  YS02001783YS02001784      1263.157      2384.807        26.057         1.924        12.897
  YS02001784YS02001785      1270.518      2396.612        26.770         2.014        13.343
  YS02001788YS02001790      1271.123      2397.590        26.842         2.023        13.388
  YS02001790YS02001791      1272.120      2399.192        26.942         2.036        13.451
  YS02001791YS02001793      1271.985      2398.956        26.936         2.035        13.447
  YS02001910YS02001907       565.746      1068.307        12.777         0.944         6.452
  YS02001786YS02001788      1270.714      2396.929        26.798         2.017        13.361
  YS02001915YS02001910       565.517      1067.834        12.732         0.937         6.422
  YS02001918YS02001915       279.103       506.234         6.913         0.595         3.634
  YS02001923YS02001920       253.885       463.141         4.889         0.350         2.384
  YS02001926YS02001923       250.808       457.609         4.765         0.337         2.313
  YS02001929YS02001926       248.096       452.858         4.647         0.324         2.244
  YS02001920YS02001918       274.937       497.505         6.821         0.589         3.588
  YS02001629YS02163301        89.571       159.113         1.892         0.124         0.887
  YS02001619YS02001622       259.373       485.221         5.243         0.348         2.461
  YS02001622YS02001625       258.416       483.720         5.219         0.346         2.450
  YS02001625YS02001629        86.660       153.328         1.847         0.120         0.864
  YS02163301YS02001633        94.411       168.607         1.969         0.131         0.926
  YS02163601YS02164001       529.053       976.558        10.165         0.735         4.886
  YS02164001YS02001641       528.943       976.362        10.152         0.733         4.878
  YS02001641YS02001644       529.957       978.062        10.164         0.734         4.883
  YS02001647YS02001649       663.680      1242.704        13.286         0.921         6.371
  YS02006553YS02006556       782.266      1457.946        16.630         1.259         8.330
  YS02006556YS02006558       782.415      1458.219        16.595         1.254         8.307
  YSB6556YSB1171              36.522        72.734         0.718         0.059         0.359
  YS02001907YS02006553       782.252      1457.929        16.658         1.264         8.349
  YS02006558YS02006561      1263.227      2384.892        26.061         1.925        12.899
  YS02001633YS02163601       529.646       977.494        10.142         0.730         4.868
  YS02001644YS02001647       670.845      1256.474        13.393         0.929         6.421
  YS02001745YS02001748       354.019       679.883         6.988         0.437         3.357
  YS02001748YS02001751       353.325       678.704         6.995         0.440         3.365
  YS02001751YS02001754       352.433       677.241         6.982         0.440         3.360
  YS02001754YS02001757       353.263       678.488         7.148         0.462         3.468
  YS02001882YS02001884         4.699         8.370         0.089         0.007         0.044
  YS02001884YS02001887         7.731        13.956         0.146         0.011         0.072
  YS02001890YS02001895       614.531      1174.932        11.356         0.858         5.541
  YS02001895YS02001898       614.414      1174.805        11.351         0.857         5.538
  YS02001898YS02001901       614.305      1174.571        11.349         0.857         5.537
  YS02001901YS02001904       614.059      1174.239        11.354         0.858         5.542
  YS02001904YS02001907       614.526      1174.943        11.417         0.866         5.581
  YS02001887YS02001890       669.131      1284.136        12.353         0.936         6.031
  YS02001652YS02001649       314.994       597.446         6.261         0.453         2.942
  YS02001655YS02001652       315.652       598.518         6.279         0.454         2.950
  YS02001658YS02001655       315.302       597.970         6.196         0.443         2.896
  YS02001661YS02001658       316.014       599.130         6.213         0.444         2.904
  YS02001664YS02001661       324.699       612.953         6.420         0.458         2.998
  YSB1154YSB6556              36.100        72.066         0.671         0.053         0.330
  YSB1174YSB1171              24.944        50.008         0.488         0.039         0.242
  YSB1171HS02004479           62.903       125.019         1.341         0.114         0.684
  HS02004881HS02006253        73.183       148.506         1.536         0.110         0.748
  YS02001793JiankangQianchi      1272.029      2399.092        26.893         2.029        13.419
  YS02001757CaochengTiaoxuchi       624.691      1192.926        11.954         0.821         5.753
  WSF200WS02003060           930.954      1801.363        22.802         1.945        11.820
  1                         2434.250      4333.044       139.203        16.059        83.301
  CC-Pump-1                  146.144       281.934         2.742         0.188         1.316
  CC-Pump-2                   39.188        75.399         0.738         0.051         0.354
  JK-Pump-1                  326.230       624.995         6.570         0.482         3.237
  JK-Pump-2                  742.702      1422.882        14.958         1.098         7.370
  XR-Pump-1                  346.788       587.318        26.095         3.149        15.981
  XR-Pump-2                  346.788       587.318        26.095         3.149        15.981
  XR-Pump-3                  338.449       573.934        25.315         3.052        15.496
  XR-Pump-4                  338.449       573.934        25.315         3.052        15.496
  

  Analysis begun on:  Thu Jul 15 13:44:21 2021
  Analysis ended on:  Thu Jul 15 13:44:23 2021
  Total elapsed time: 00:00:02