
  EPA STORM WATER MANAGEMENT MODEL - VERSION 5.1 (Build 5.3.0.dev0)
  --------------------------------------------------------------

  WARNING 04: minimum elevation drop used for Conduit WS02004404WS02004405
  WARNING 03: negative offset ignored for Link YS02001904YS02001907
  
  *********************************************************
  NOTE: The summary statistics displayed in this report are
  based on results found at every computational time step,  
  not just on results from each reporting time step.
  *********************************************************
  
  ****************
  Analysis Options
  ****************
  Flow Units ............... LPS
  Process Models:
    Rainfall/Runoff ........ YES
    RDII ................... NO
    Snowmelt ............... NO
    Groundwater ............ NO
    Flow Routing ........... YES
    Ponding Allowed ........ NO
    Water Quality .......... YES
  Infiltration Method ...... HORTON
  Flow Routing Method ...... DYNWAVE
  Surcharge Method ......... EXTRAN
  Starting Date ............ 08/28/2015 08:00:00
  Ending Date .............. 08/28/2015 15:50:00
  Antecedent Dry Days ...... 8.0
  Report Time Step ......... 00:01:00
  Wet Time Step ............ 00:01:00
  Dry Time Step ............ 00:01:00
  Routing Time Step ........ 5.00 sec
  Variable Time Step ....... YES
  Maximum Trials ........... 8
  Number of Threads ........ 4
  Head Tolerance ........... 0.001500 m
  
  
  **************************        Volume         Depth
  Runoff Quantity Continuity     hectare-m            mm
  **************************     ---------       -------
  Total Precipitation ......         7.641        16.729
  Evaporation Loss .........         0.000         0.000
  Infiltration Loss ........         1.184         2.592
  Surface Runoff ...........         5.481        12.000
  Final Storage ............         0.977         2.139
  Continuity Error (%) .....        -0.016
  
  
  **************************           COD            SS            TN            TP         NH4-N
  Runoff Quality Continuity             kg            kg            kg            kg            kg
  **************************    ----------    ----------    ----------    ----------    ----------
  Initial Buildup ..........     41378.656     70582.865      1804.177       168.684      1032.807
  Surface Buildup ..........        30.344        63.217         2.449         0.220         1.402
  Wet Deposition ...........         0.000         0.000         0.000         0.000         0.000
  Sweeping Removal .........         0.000         0.000         0.000         0.000         0.000
  Infiltration Loss ........       127.934       247.015         2.452         0.174         1.174
  BMP Removal ..............         0.000         0.000         0.000         0.000         0.000
  Surface Runoff ...........      5553.100     10632.121       107.101         7.411        51.076
  Remaining Buildup ........     35725.917     59762.998      1697.031       161.316       981.940
  Continuity Error (%) .....         0.005         0.006         0.002         0.002         0.002
  
  
  **************************        Volume        Volume
  Flow Routing Continuity        hectare-m      10^6 ltr
  **************************     ---------     ---------
  Dry Weather Inflow .......         0.616         6.165
  Wet Weather Inflow .......         5.479        54.793
  Groundwater Inflow .......         0.000         0.000
  RDII Inflow ..............         0.000         0.000
  External Inflow ..........         0.102         1.024
  External Outflow .........         2.035        20.353
  Flooding Loss ............         3.699        36.995
  Evaporation Loss .........         0.000         0.000
  Exfiltration Loss ........         0.000         0.000
  Initial Stored Volume ....         0.076         0.761
  Final Stored Volume ......         0.648         6.485
  Continuity Error (%) .....        -1.740
  
  
  **************************           COD            SS            TN            TP         NH4-N
  Quality Routing Continuity            kg            kg            kg            kg            kg
  **************************    ----------    ----------    ----------    ----------    ----------
  Dry Weather Inflow .......      1541.201      2465.922       147.955        18.494        92.472
  Wet Weather Inflow .......      5552.103     10630.355       107.080         7.410        51.066
  Groundwater Inflow .......         0.000         0.000         0.000         0.000         0.000
  RDII Inflow ..............         0.000         0.000         0.000         0.000         0.000
  External Inflow ..........       183.418       293.469        17.608         2.201        11.005
  External Outflow .........      2519.278      4493.033       141.221        16.224        84.340
  Flooding Loss ............      4038.924      7635.087       102.742         8.924        53.863
  Exfiltration Loss ........         0.000         0.000         0.000         0.000         0.000
  Mass Reacted .............         0.000         0.000         0.000         0.000         0.000
  Initial Stored Mass ......         0.000         0.000         0.000         0.000         0.000
  Final Stored Mass ........       615.387      1091.032        25.512         2.676        14.642
  Continuity Error (%) .....         1.417         1.274         1.162         0.998         1.099
  
  
  *************************
  Highest Continuity Errors
  *************************
  Node HS02004842 (10.96%)
  Node YS02001884 (10.13%)
  Node JK-storage (-8.77%)
  Node HS02004817 (2.13%)
  Node YSB1171 (1.97%)
  
  
  ***************************
  Time-Step Critical Elements
  ***************************
  Link WS02006252WS02006251 (56.62%)
  Link WS02006280WS02006229 (11.02%)
  Link YS02001793JiankangQianchi (7.77%)
  Link WS02006238WS02006235 (6.11%)
  Link YS02006556YS02006558 (5.49%)
  
  
  ********************************
  Highest Flow Instability Indexes
  ********************************
  Link WS02006113WS02006111 (37)
  Link YS02163601YS02164001 (28)
  Link YS02001629YS02163301 (28)
  Link YS02001619YS02001622 (27)
  Link YS02163301YS02001633 (27)
  
  
  *************************
  Routing Time Step Summary
  *************************
  Minimum Time Step           :     0.50 sec
  Average Time Step           :     1.36 sec
  Maximum Time Step           :     5.00 sec
  Percent in Steady State     :     0.00
  Average Iterations per Step :     3.66
  Percent Not Converging      :    13.61
  
  
  ***************************
  Subcatchment Runoff Summary
  ***************************
  
  ------------------------------------------------------------------------------------------------------------------------------
                            Total      Total      Total      Total     Imperv       Perv      Total       Total     Peak  Runoff
                           Precip      Runon       Evap      Infil     Runoff     Runoff     Runoff      Runoff   Runoff   Coeff
  Subcatchment                 mm         mm         mm         mm         mm         mm         mm    10^6 ltr      LPS
  ------------------------------------------------------------------------------------------------------------------------------
  sub0                      16.73       0.00       0.00       0.71      15.51       0.47      15.98        0.01     3.87   0.955
  sub1                      16.73       0.00       0.00       1.18      14.80       0.66      15.46        0.10    26.74   0.924
  sub2                      16.73       0.00       0.00       4.79      10.46       1.40      11.85        0.11    25.81   0.708
  sub3                      16.73       0.00       0.00       5.01      10.42       1.18      11.60        0.26    56.97   0.693
  sub4                      16.73       0.00       0.00       1.28      14.64       0.56      15.20        0.32    66.74   0.909
  sub5                      16.73       0.00       0.00       0.73      15.46       0.44      15.91        0.18    46.91   0.951
  sub7                      16.73       0.00       0.00       0.93      15.16       0.58      15.74        0.05    14.85   0.941
  sub8                      16.73       0.00       0.00       0.94      15.15       0.57      15.72        0.10    27.42   0.940
  sub9                      16.73       0.00       0.00       0.94      15.15       0.57      15.72        0.08    20.52   0.940
  sub10                     16.73       0.00       0.00       0.83      15.30       0.50      15.81        0.17    46.04   0.945
  sub11                     16.73       0.00       0.00       0.83      15.32       0.51      15.83        0.18    50.62   0.947
  sub12                     16.73       0.00       0.00       1.34      14.51       0.83      15.34        0.13    39.22   0.917
  sub14                     16.73       0.00       0.00       0.94      15.15       0.57      15.72        0.15    40.40   0.939
  sub15                     16.73       0.00       0.00       3.54      11.65       1.48      13.13        0.23    57.86   0.785
  sub16                     16.73       0.00       0.00       3.72      11.17       1.80      12.97        0.14    37.34   0.776
  sub17                     16.73       0.00       0.00       3.62      11.33       1.73      13.07        0.11    30.57   0.781
  sub22                     16.73       0.00       0.00       5.27       9.49       1.92      11.42        0.72   183.11   0.683
  sub23                     16.73       0.00       0.00       4.37      10.50       1.82      12.32        0.59   153.57   0.736
  sub60                     16.73       0.00       0.00       1.74      12.78       0.27      13.05        3.96   446.24   0.780
  sub61                     16.73       0.00       0.00       2.46      12.72       0.38      13.11        4.04   542.53   0.784
  sub62                     16.73       0.00       0.00       1.06      13.91       0.27      14.19        4.36   558.01   0.848
  sub63                     16.73       0.00       0.00       4.39      11.06       0.46      11.52        3.49   496.40   0.689
  sub64                     16.73       0.00       0.00       2.23      12.28       0.28      12.56        3.82   424.95   0.751
  sub65                     16.73       0.00       0.00       1.91      12.51       0.27      12.77        3.93   431.32   0.764
  sub66                     16.73       0.00       0.00       4.54      10.46       0.31      10.78        3.31   388.44   0.644
  sub67                     16.73       0.00       0.00       1.01      14.45       0.32      14.78        4.56   675.76   0.883
  sub68                     16.73       0.00       0.00       1.95      13.33       0.39      13.71        4.22   589.75   0.820
  sub69                     16.73       0.00       0.00       2.00      13.62       0.51      14.12        3.30   542.07   0.844
  sub70                     16.73      14.42       0.00       8.47      19.01       2.12      21.13        4.84   534.50   0.678
  sub71                     16.73       0.00       0.00       1.08      13.65       0.25      13.90        3.28   394.68   0.831
  sub72                     16.73       0.00       0.00       1.02      11.50       0.15      11.65        2.37   206.66   0.697
  1                         16.73      20.58       0.00       1.37      22.38       7.20      29.58        6.95   612.18   0.793
  2                         16.73       0.00       0.00       3.02       4.04       3.18       7.22        2.89   331.58   0.431
  
  
  ****************************
  Subcatchment Washoff Summary
  ****************************
  
  ------------------------------------------------------------------------------------------
                                 COD            SS            TN            TP         NH4-N
  Subcatchment                    kg            kg            kg            kg            kg
  ------------------------------------------------------------------------------------------
  sub0                         3.641         7.161         0.064         0.005         0.031
  sub1                        15.670        31.767         0.296         0.021         0.143
  sub2                        10.304        20.454         0.214         0.015         0.099
  sub3                        25.293        49.815         0.517         0.036         0.240
  sub4                        36.168        74.260         0.714         0.044         0.344
  sub5                        35.763        71.366         0.649         0.050         0.316
  sub7                         7.894        16.212         0.150         0.010         0.073
  sub8                        11.755        24.726         0.234         0.014         0.113
  sub9                        10.113        20.966         0.196         0.013         0.095
  sub10                       29.347        59.341         0.545         0.040         0.265
  sub11                       28.395        58.052         0.536         0.037         0.260
  sub12                       24.463        49.072         0.450         0.034         0.218
  sub14                       21.697        44.543         0.414         0.028         0.200
  sub15                       29.696        58.821         0.572         0.042         0.270
  sub16                       19.246        38.050         0.367         0.028         0.174
  sub17                       17.687        34.653         0.330         0.026         0.156
  sub22                       95.915       186.896         1.820         0.139         0.857
  sub23                       54.382       109.539         1.141         0.076         0.527
  sub60                      353.947       679.509         6.988         0.437         3.357
  sub61                      439.695       840.113         8.188         0.570         3.952
  sub62                      449.790       873.119         8.744         0.564         4.209
  sub63                      328.186       618.356         6.505         0.463         3.037
  sub64                      450.924       835.563         8.299         0.611         3.976
  sub65                      460.537       856.688         8.527         0.617         4.090
  sub66                      259.427       485.147         5.248         0.348         2.463
  sub67                      667.181      1281.068        12.075         0.900         5.853
  sub68                      479.473       924.467         9.153         0.628         4.389
  sub69                      429.286       835.450         8.068         0.576         3.873
  sub70                      758.301      1478.311        15.194         1.074         7.173
  sub71                      296.268       580.620         6.027         0.356         2.890
  sub72                      247.759       452.374         4.612         0.320         2.223
  1                          576.917      1130.968        11.723         0.829         5.484
  2                           65.566       118.435         1.802         0.109         0.773
  ------------------------------------------------------------------------------------------
  System                    6740.687     12945.882       130.363         9.060        62.122
  
  
  ******************
  Node Depth Summary
  ******************
  
  ---------------------------------------------------------------------------------
                                 Average  Maximum  Maximum  Time of Max    Reported
                                   Depth    Depth      HGL   Occurrence   Max Depth
  Node                 Type       Meters   Meters   Meters  days hr:min      Meters
  ---------------------------------------------------------------------------------
  WS02001211           JUNCTION     0.78     0.85     5.69     0  02:04        0.85
  WS02001212           JUNCTION     0.48     0.58     5.64     0  02:05        0.58
  WS02001213           JUNCTION     0.72     0.86     5.62     0  02:03        0.86
  WS02003069           JUNCTION     0.52     0.72     5.31     0  02:03        0.72
  WS02003072           JUNCTION     0.58     0.76     5.14     0  02:04        0.76
  WS02003073           JUNCTION     0.35     0.48     4.55     0  02:04        0.48
  WS02003060           JUNCTION     0.46     0.64     5.57     0  02:03        0.64
  WS02003066           JUNCTION     0.25     0.39     5.94     0  01:58        0.39
  WS02003059           JUNCTION     0.77     0.91     5.60     0  02:03        0.91
  WS02003067           JUNCTION     0.59     0.83     6.15     0  01:57        0.83
  WS02004401           JUNCTION     0.73     1.31     7.31     0  01:55        1.26
  WS02004402           JUNCTION     0.75     1.30     7.26     0  01:55        1.25
  WS02004403           JUNCTION     0.77     1.27     7.20     0  01:55        1.22
  WS02004404           JUNCTION     0.84     1.31     7.16     0  01:55        1.26
  WS02004406           JUNCTION     0.84     1.20     7.03     0  01:55        1.17
  WS02004409           JUNCTION     0.53     0.98     6.75     0  01:57        0.98
  WS02004410           JUNCTION     0.55     0.96     6.68     0  01:57        0.96
  WS02004411           JUNCTION     0.56     0.94     6.62     0  01:58        0.94
  WS02004412           JUNCTION     0.57     0.91     6.55     0  01:57        0.91
  WS02004413           JUNCTION     0.73     1.03     6.50     0  01:57        1.03
  WS02004405           JUNCTION     0.83     1.28     7.13     0  01:55        1.23
  WS02006109           JUNCTION     0.83     1.75     8.37     0  01:55        1.75
  WS02006110           JUNCTION     0.80     1.54     8.13     0  01:55        1.52
  WS02006111           JUNCTION     0.26     1.03     7.73     0  01:55        0.94
  WS02006112           JUNCTION     0.91     1.65     7.53     0  01:55        1.61
  WS02006113           JUNCTION     0.37     1.04     7.93     0  01:55        1.00
  WS02006115           JUNCTION     0.63     1.31     7.45     0  01:55        1.26
  WS02006116           JUNCTION     0.70     1.35     7.39     0  01:55        1.30
  WS02006230           JUNCTION     0.84     1.98     8.72     0  01:56        1.98
  WS02006231           JUNCTION     0.59     1.62     8.74     0  01:56        1.60
  WS02006232           JUNCTION     0.73     1.70     8.74     0  01:56        1.70
  WS02006234           JUNCTION     0.66     1.59     8.74     0  01:55        1.58
  WS02006235           JUNCTION     0.70     1.59     8.76     0  01:56        1.58
  WS02006238           JUNCTION     0.72     1.61     8.76     0  01:55        1.60
  WS02006240           JUNCTION     0.62     1.44     8.73     0  01:56        1.44
  WS02006242           JUNCTION     0.66     1.46     8.72     0  01:56        1.45
  WS02006243           JUNCTION     0.55     1.29     8.71     0  01:56        1.29
  WS02006245           JUNCTION     0.52     1.23     8.71     0  01:53        1.22
  WS02006247           JUNCTION     0.53     1.21     8.71     0  01:53        1.20
  WS02006248           JUNCTION     0.47     1.10     8.69     0  01:53        1.10
  WS02006249           JUNCTION     0.49     1.09     8.69     0  01:53        1.09
  WS02006239           JUNCTION     0.67     1.54     8.74     0  01:56        1.53
  WS02006251           JUNCTION     0.46     1.35     9.02     0  05:09        1.28
  WS02006252           JUNCTION     0.29     0.91     9.15     0  05:09        0.84
  WS02006253           JUNCTION     0.49     1.52     9.16     0  01:54        1.32
  WS02006256           JUNCTION     1.75     2.35     9.28     0  00:18        2.35
  WS02004138           JUNCTION     0.19     0.20     7.45     0  00:00        0.19
  WS02004139           JUNCTION     0.72     0.79     5.70     0  02:05        0.79
  WS02004407           JUNCTION     0.24     0.40     6.72     0  01:56        0.40
  WS02006228           JUNCTION     0.85     1.94     8.59     0  01:56        1.94
  WS02006229           JUNCTION     0.83     2.02     8.71     0  01:56        2.01
  WS02006280           JUNCTION     0.08     0.34     8.61     0  01:55        0.32
  WS02006284           JUNCTION     0.39     0.66     9.06     0  01:54        0.66
  WS02006287           JUNCTION     0.12     0.40     9.36     0  01:54        0.40
  WSF200               JUNCTION     0.24     0.44     5.67     0  01:58        0.44
  HS02004901           JUNCTION     0.14     0.38    10.21     0  01:53        0.38
  HS02004881           JUNCTION     0.01     0.06     9.08     0  01:54        0.05
  HS02004876           JUNCTION     0.05     0.17     9.20     0  01:54        0.17
  HS02004870           JUNCTION     0.02     0.10     9.38     0  01:54        0.10
  HS02004862           JUNCTION     0.03     0.11     9.50     0  01:55        0.11
  HS02004856           JUNCTION     0.08     0.15     9.58     0  01:54        0.15
  HS02004852           JUNCTION     0.01     0.08     9.59     0  01:54        0.08
  HS02004848           JUNCTION     0.01     0.07     9.67     0  01:54        0.07
  HS02004842           JUNCTION     0.34     0.40     9.67     0  01:54        0.40
  HS02004837           JUNCTION     0.03     0.09     9.67     0  01:54        0.09
  HS02004830           JUNCTION     0.05     0.11     9.58     0  01:55        0.11
  HS02004824           JUNCTION     0.03     0.15     9.55     0  01:54        0.15
  HS02004817           JUNCTION     0.46     0.71     9.56     0  01:54        0.71
  HS02004807           JUNCTION     0.14     0.38     9.55     0  01:55        0.38
  HS02004802           JUNCTION     0.18     0.41     9.54     0  01:55        0.41
  HS02004799           JUNCTION     0.14     0.48     9.69     0  01:53        0.48
  HS02004792           JUNCTION     0.05     0.22     9.75     0  01:53        0.22
  HS02004788           JUNCTION     0.03     0.16    10.06     0  01:54        0.16
  HS02004785           JUNCTION     0.06     0.25    10.15     0  01:53        0.25
  HS02004777           JUNCTION     0.16     0.40    10.20     0  01:53        0.40
  HS02004770           JUNCTION     0.13     0.37    10.21     0  01:53        0.37
  HS02004480           JUNCTION     0.10     0.39     9.64     0  01:53        0.39
  HS02004479           JUNCTION     0.14     0.43     9.64     0  01:53        0.43
  HS02004478           JUNCTION     0.08     0.29     9.52     0  01:54        0.29
  YS02001745           JUNCTION     0.78     0.97     8.48     0  03:01        0.97
  YS02001748           JUNCTION     1.18     1.40     8.48     0  02:30        1.40
  YS02001751           JUNCTION     1.36     1.59     8.47     0  03:01        1.59
  YS02001754           JUNCTION     1.61     1.85     8.46     0  03:01        1.85
  YS02001762           JUNCTION     1.81     2.05     8.45     0  03:01        2.05
  YS02001765           JUNCTION     1.76     1.99     8.44     0  03:01        1.99
  YS02001767           JUNCTION     1.73     1.95     8.44     0  02:30        1.95
  YS02001770           JUNCTION     1.72     1.94     8.43     0  02:30        1.93
  YS02001774           JUNCTION     1.79     1.99     8.41     0  02:30        1.98
  YS02001779           JUNCTION     1.53     1.68     8.37     0  01:47        1.68
  YS02001882           JUNCTION     0.70     1.67     8.39     0  01:50        1.63
  YS02001884           JUNCTION     0.79     1.76     8.38     0  01:50        1.73
  YS02001759           JUNCTION     1.85     2.09     8.45     0  03:01        2.09
  YS02001887           JUNCTION     0.87     1.82     8.36     0  01:50        1.81
  YS02001890           JUNCTION     0.90     1.81     8.32     0  01:50        1.81
  YS02001898           JUNCTION     0.66     1.57     8.30     0  01:51        1.56
  YS02001901           JUNCTION     0.78     1.68     8.29     0  02:02        1.67
  YS02001904           JUNCTION     0.76     1.64     8.27     0  01:55        1.63
  YS02001907           JUNCTION     1.08     1.96     8.25     0  01:51        1.96
  YS02001910           JUNCTION     0.88     1.95     8.46     0  01:51        1.80
  YS02001915           JUNCTION     0.68     1.88     8.59     0  01:51        1.65
  YS02001918           JUNCTION     0.42     1.76     8.82     0  01:51        1.39
  YS02001619           JUNCTION     1.32     1.60     8.52     0  01:45        1.48
  YS02001629           JUNCTION     1.67     1.85     8.40     0  01:49        1.85
  YS02001641           JUNCTION     1.76     1.94     8.37     0  01:49        1.94
  YS02001644           JUNCTION     1.76     1.92     8.35     0  01:48        1.92
  YS02001652           JUNCTION     1.62     2.04     8.63     0  01:57        1.88
  YS02001655           JUNCTION     1.39     1.92     8.77     0  01:57        1.67
  YS02001920           JUNCTION     0.52     1.87     8.88     0  01:51        1.50
  YS02001923           JUNCTION     0.35     1.91     9.17     0  01:51        1.31
  YS02001926           JUNCTION     0.37     1.67     9.11     0  01:51        1.18
  YS02001929           JUNCTION     0.23     1.00     8.69     0  01:51        1.00
  YS02001658           JUNCTION     1.12     1.66     8.80     0  01:57        1.39
  YS02001661           JUNCTION     0.88     1.42     8.83     0  01:57        1.11
  YS02001664           JUNCTION     0.40     0.56     8.49     0  01:52        0.55
  YS02001622           JUNCTION     1.34     1.59     8.49     0  01:45        1.50
  YS02001633           JUNCTION     1.76     1.95     8.40     0  01:49        1.94
  YS02001649           JUNCTION     1.82     2.05     8.44     0  01:57        2.05
  YS02001757           JUNCTION     1.94     2.19     8.45     0  03:01        2.19
  YS02001895           JUNCTION     0.66     1.57     8.32     0  01:51        1.56
  YS02001625           JUNCTION     1.62     1.78     8.38     0  01:45        1.78
  YS02163301           JUNCTION     1.70     1.88     8.40     0  01:53        1.88
  YS02163601           JUNCTION     1.81     1.99     8.39     0  01:49        1.98
  YS02164001           JUNCTION     1.74     1.92     8.38     0  01:48        1.92
  YS02001647           JUNCTION     1.60     1.79     8.40     0  01:57        1.79
  YSB1154              JUNCTION     0.28     0.58     9.64     0  01:53        0.58
  YSB6556              JUNCTION     0.17     0.47     9.64     0  01:53        0.47
  YSB1174              JUNCTION     0.23     0.53     9.64     0  01:53        0.53
  YSB1171              JUNCTION     0.43     0.74     9.64     0  01:53        0.74
  YS02006553           JUNCTION     1.09     1.97     8.26     0  02:07        1.96
  YS02006561           JUNCTION     0.42     1.09     7.75     0  01:51        1.08
  YS02006556           JUNCTION     1.05     1.94     8.25     0  02:09        1.93
  YS02006558           JUNCTION     1.09     1.98     8.24     0  02:13        1.97
  YS02001783           JUNCTION     0.65     1.68     7.82     0  01:44        1.47
  YS02001784           JUNCTION     0.66     1.58     7.64     0  01:44        1.42
  YS02001786           JUNCTION     0.59     1.41     7.44     0  01:44        1.26
  YS02001788           JUNCTION     0.51     1.29     7.26     0  01:44        1.13
  YS02001790           JUNCTION     0.63     1.74     7.38     0  01:44        1.29
  YS02001791           JUNCTION     0.59     1.74     7.21     0  01:43        1.30
  YS02001793           JUNCTION     0.83     1.87     6.71     0  01:43        1.85
  WSC                  OUTFALL      0.35     0.48     1.15     0  02:05        0.48
  JK-storage           STORAGE      3.23     5.80     6.60     0  01:44        5.80
  CC-storage           STORAGE      1.20     1.45     8.45     0  03:01        1.45
  XR-storage           STORAGE      7.01     7.72     5.72     0  02:07        7.72
  
  
  *******************
  Node Inflow Summary
  *******************
  
  -------------------------------------------------------------------------------------------------
                                  Maximum  Maximum                  Lateral       Total        Flow
                                  Lateral    Total  Time of Max      Inflow      Inflow     Balance
                                   Inflow   Inflow   Occurrence      Volume      Volume       Error
  Node                 Type           LPS      LPS  days hr:min    10^6 ltr    10^6 ltr     Percent
  -------------------------------------------------------------------------------------------------
  WS02001211           JUNCTION      7.35   390.12     0  02:26       0.207        10.3       0.391
  WS02001212           JUNCTION      0.00   392.87     0  02:26           0        10.3       0.237
  WS02001213           JUNCTION      0.00   395.09     0  02:25           0        10.2       0.276
  WS02003069           JUNCTION      0.32  1338.86     0  02:03     0.00902        20.4       0.167
  WS02003072           JUNCTION      0.00  1338.85     0  02:04           0        20.4       0.202
  WS02003073           JUNCTION      1.82  1340.96     0  02:04      0.0514        20.4       0.236
  WS02003060           JUNCTION     16.53  1338.19     0  02:03       0.466        20.5       0.156
  WS02003066           JUNCTION      0.00   954.40     0  01:58           0        9.81       0.043
  WS02003059           JUNCTION      0.00   397.96     0  05:49           0        10.2       0.394
  WS02003067           JUNCTION      0.00   953.89     0  01:58           0        9.82       0.090
  WS02004401           JUNCTION      0.00   967.92     0  01:56           0          10       0.176
  WS02004402           JUNCTION      0.00   968.36     0  01:56           0          10       0.170
  WS02004403           JUNCTION      0.00   968.80     0  01:56           0        9.99       0.158
  WS02004404           JUNCTION      0.16   969.66     0  01:56     0.00457        9.98       0.123
  WS02004406           JUNCTION      0.00   970.35     0  01:56           0        9.95       0.299
  WS02004409           JUNCTION      0.00   968.32     0  01:56           0        9.92       0.140
  WS02004410           JUNCTION      0.00   957.00     0  01:57           0         9.9       0.164
  WS02004411           JUNCTION      0.00   952.31     0  01:58           0        9.89       0.173
  WS02004412           JUNCTION      0.00   953.56     0  01:58           0        9.87       0.190
  WS02004413           JUNCTION      0.00   953.67     0  01:58           0        9.85       0.290
  WS02004405           JUNCTION      0.04   969.94     0  01:56     0.00107        9.97       0.183
  WS02006109           JUNCTION      1.23   939.29     0  01:56      0.0347          10       0.096
  WS02006110           JUNCTION      0.00   939.12     0  01:56           0        9.99       0.142
  WS02006111           JUNCTION      0.00   938.58     0  01:56           0        9.97       0.016
  WS02006112           JUNCTION     30.57   967.56     0  01:56       0.112        10.1       0.253
  WS02006113           JUNCTION      0.00   938.87     0  01:56           0        9.98       0.063
  WS02006115           JUNCTION      0.00   967.38     0  01:56           0        10.1       0.155
  WS02006116           JUNCTION      0.00   968.43     0  01:56           0          10       0.132
  WS02006230           JUNCTION     10.28   533.86     0  07:22        0.29         6.9       0.126
  WS02006231           JUNCTION      0.00   523.73     0  07:22           0        6.61       0.008
  WS02006232           JUNCTION      0.00   523.71     0  07:22           0        6.61       0.130
  WS02006234           JUNCTION      0.00   523.46     0  07:22           0         6.6      -0.010
  WS02006235           JUNCTION      0.00   523.78     0  07:22           0        6.69       0.103
  WS02006238           JUNCTION      0.00   419.75     0  07:30           0        3.35      -0.079
  WS02006240           JUNCTION      0.00   418.69     0  07:30           0        3.28       0.056
  WS02006242           JUNCTION      0.00   418.13     0  07:30           0        3.26       0.119
  WS02006243           JUNCTION      0.00   417.52     0  07:30           0        3.23      -0.106
  WS02006245           JUNCTION      0.00   416.77     0  07:30           0        3.22       0.159
  WS02006247           JUNCTION      0.00   416.60     0  07:30           0        3.21       0.038
  WS02006248           JUNCTION      0.00   416.14     0  07:30           0        3.22      -0.116
  WS02006249           JUNCTION      0.00   452.56     0  02:40           0        3.51       0.108
  WS02006239           JUNCTION      0.00   419.51     0  07:30           0        3.32      -0.063
  WS02006251           JUNCTION      0.08   451.63     0  02:40     0.00217        3.56      -0.039
  WS02006252           JUNCTION      0.00   400.00     0  05:10           0        2.88       0.003
  WS02006253           JUNCTION      3.87   194.21     0  01:54      0.0129       0.671      -0.129
  WS02006256           JUNCTION      0.00   983.00     0  02:00           0        11.3       0.009
  WS02004138           JUNCTION      0.00   380.00     0  00:00           0        10.1       0.067
  WS02004139           JUNCTION      0.32   394.45     0  00:00     0.00905        10.1       0.448
  WS02004407           JUNCTION      0.00   970.44     0  01:56           0        9.92       0.057
  WS02006228           JUNCTION      0.00   937.76     0  01:56           0        9.97       0.072
  WS02006229           JUNCTION      0.00   989.62     0  01:55           0        9.99       0.119
  WS02006280           JUNCTION      0.00   736.07     0  01:54           0        3.11       0.011
  WS02006284           JUNCTION      0.10   735.81     0  01:54      0.0027        3.11       0.020
  WS02006287           JUNCTION      0.00   735.61     0  01:54           0        3.11       0.023
  WSF200               JUNCTION      0.00   954.86     0  01:58           0        9.81       0.039
  HS02004901           JUNCTION     37.34    37.34     0  01:51       0.136       0.136       1.311
  HS02004881           JUNCTION     14.85   153.29     0  01:54       0.053       0.601       0.099
  HS02004876           JUNCTION     26.74   139.06     0  01:54       0.103       0.549       0.099
  HS02004870           JUNCTION     27.42   112.65     0  01:54         0.1       0.446       0.024
  HS02004862           JUNCTION     26.01    86.18     0  01:54       0.116       0.346       0.050
  HS02004856           JUNCTION     20.52    60.23     0  01:54      0.0756       0.231       0.628
  HS02004852           JUNCTION      0.00    40.37     0  01:54           0       0.155       0.036
  HS02004848           JUNCTION     56.97    56.97     0  01:56       0.261       0.261       0.018
  HS02004842           JUNCTION      0.00    18.18     0  02:06           0       0.119      12.307
  HS02004837           JUNCTION     52.39    67.87     0  01:54       0.353       0.459       0.177
  HS02004830           JUNCTION      0.15    67.98     0  01:54     0.00423       0.449       0.276
  HS02004824           JUNCTION     66.79   134.68     0  01:56       0.318       0.767       0.071
  HS02004817           JUNCTION      0.60   137.00     0  01:57      0.0169       0.783       2.175
  HS02004807           JUNCTION     50.62   184.20     0  01:55       0.184       0.952       0.460
  HS02004802           JUNCTION      0.00   183.92     0  01:56           0        0.95       0.416
  HS02004799           JUNCTION     40.40   470.73     0  01:53        0.15        1.87       0.159
  HS02004792           JUNCTION    183.39   430.97     0  01:53       0.729        1.72       0.023
  HS02004788           JUNCTION     59.53   248.79     0  01:53       0.273       0.991       0.039
  HS02004785           JUNCTION      0.15   189.55     0  01:53     0.00423        0.72       0.069
  HS02004777           JUNCTION      0.03   189.70     0  01:52    0.000846        0.72       0.728
  HS02004770           JUNCTION    153.57   190.37     0  01:52       0.587       0.722       0.429
  HS02004480           JUNCTION      0.00   554.33     0  01:53           0        2.18       0.044
  HS02004479           JUNCTION      0.00    83.75     0  01:53           0       0.323       0.229
  HS02004478           JUNCTION      0.00   735.57     0  01:54           0        3.11       0.010
  YS02001745           JUNCTION    446.25   446.25     0  02:16        3.95        3.95       0.288
  YS02001748           JUNCTION      0.04   450.25     0  02:16     0.00127        3.94       0.584
  YS02001751           JUNCTION      0.01   450.44     0  02:16     0.00031        3.92       0.617
  YS02001754           JUNCTION      0.26   450.21     0  02:16     0.00733        3.91       0.628
  YS02001762           JUNCTION      0.00   433.63     0  01:55           0        2.49       0.862
  YS02001765           JUNCTION      0.00   434.21     0  01:55           0        2.49       0.992
  YS02001767           JUNCTION      0.54   434.56     0  01:55      0.0151        2.51       1.436
  YS02001770           JUNCTION    558.16   752.37     0  03:01        4.36        5.61       0.562
  YS02001774           JUNCTION      0.00   752.40     0  03:01           0        4.33       0.576
  YS02001779           JUNCTION      0.01   752.45     0  03:01    0.000141         4.3       0.363
  YS02001882           JUNCTION      0.00    59.01     0  01:48           0      0.0239       9.398
  YS02001884           JUNCTION      0.00    66.48     0  01:46           0      0.0603      11.266
  YS02001759           JUNCTION    542.57   879.02     0  01:56        4.04        5.25       0.435
  YS02001887           JUNCTION    676.21   677.05     0  02:13        4.57         4.6       0.184
  YS02001890           JUNCTION      0.00   677.06     0  02:11           0        4.56       0.199
  YS02001898           JUNCTION      0.00   521.19     0  01:51           0        4.27       0.072
  YS02001901           JUNCTION      0.00   521.72     0  01:51           0        4.27       0.154
  YS02001904           JUNCTION      0.00   521.76     0  01:51           0        4.26       0.137
  YS02001907           JUNCTION      0.00  1175.45     0  01:52           0        9.98       0.240
  YS02001910           JUNCTION      0.00   661.21     0  01:52           0        5.74       0.214
  YS02001915           JUNCTION    394.70   660.52     0  01:52        3.28        5.79       0.094
  YS02001918           JUNCTION      0.00   380.18     0  01:52           0        2.54       0.067
  YS02001619           JUNCTION    388.44   388.44     0  02:16         3.3         3.3       0.372
  YS02001629           JUNCTION      0.00   221.29     0  01:48           0        1.43       2.066
  YS02001641           JUNCTION      0.00   455.36     0  01:48           0        5.09       0.411
  YS02001644           JUNCTION    424.99  1606.46     0  03:01        3.82        14.7       0.184
  YS02001652           JUNCTION      0.00   514.36     0  02:09           0        3.44       0.674
  YS02001655           JUNCTION      0.15   513.42     0  02:12     0.00434        3.46       0.730
  YS02001920           JUNCTION      2.87   379.26     0  01:52      0.0809        2.52       0.126
  YS02001923           JUNCTION      0.04   316.06     0  01:53     0.00106        2.42       0.049
  YS02001926           JUNCTION      0.05   338.75     0  01:50     0.00147        2.39       0.116
  YS02001929           JUNCTION    206.66   206.66     0  03:01        2.37        2.38       0.025
  YS02001658           JUNCTION      0.00   512.67     0  02:12           0        3.48       0.699
  YS02001661           JUNCTION      0.00   755.94     0  01:53           0        3.72      -0.028
  YS02001664           JUNCTION    496.40   496.40     0  02:16        3.49        3.72       0.165
  YS02001622           JUNCTION      0.00   389.35     0  02:16           0        3.29       0.971
  YS02001633           JUNCTION    431.52   457.40     0  01:48        3.93        5.24       0.613
  YS02001649           JUNCTION      0.00  1000.35     0  01:49           0        8.08       0.460
  YS02001757           JUNCTION      0.00  2147.43     0  01:55           0        10.3       0.895
  YS02001895           JUNCTION      0.00   521.72     0  01:51           0        4.27       0.122
  YS02001625           JUNCTION      0.00   435.07     0  02:15           0        3.34       1.191
  YS02163301           JUNCTION      0.00   221.00     0  01:48           0        1.42       1.712
  YS02163601           JUNCTION      0.11   457.26     0  01:48      0.0031        5.11       0.593
  YS02164001           JUNCTION      0.00   456.51     0  01:48           0        5.09       0.395
  YS02001647           JUNCTION      0.00   846.44     0  03:01           0        7.19       0.393
  YSB1154              JUNCTION     46.91    46.91     0  01:52        0.18       0.181       0.805
  YSB6556              JUNCTION      0.00    46.63     0  01:52           0       0.182       0.696
  YSB1174              JUNCTION     39.22    39.22     0  01:50       0.134       0.134       0.962
  YSB1171              JUNCTION      0.00    84.01     0  01:52           0       0.322       2.012
  YS02006553           JUNCTION      0.00   718.22     0  03:35           0        7.29       0.209
  YS02006561           JUNCTION      0.00   982.83     0  02:15           0        11.5       0.007
  YS02006556           JUNCTION      0.00   718.33     0  03:35           0        7.29       0.150
  YS02006558           JUNCTION    590.63   983.75     0  02:14        4.24        11.5       0.042
  YS02001783           JUNCTION      0.00   982.74     0  02:15           0        11.5       0.018
  YS02001784           JUNCTION      1.06   983.89     0  02:12      0.0299        11.5       0.031
  YS02001786           JUNCTION      0.06   983.57     0  02:13     0.00159        11.5       0.030
  YS02001788           JUNCTION      0.07   983.91     0  02:15       0.002        11.5       0.020
  YS02001790           JUNCTION      0.15   984.09     0  02:15     0.00437        11.5       0.013
  YS02001791           JUNCTION      0.00   984.39     0  02:15           0        11.5       0.001
  YS02001793           JUNCTION      0.00   984.56     0  02:15           0        11.5      -0.017
  WSC                  OUTFALL       0.00  1341.33     0  02:05           0        20.4       0.000
  JK-storage           STORAGE       0.00   984.37     0  02:11           0        11.6      -8.067
  CC-storage           STORAGE       0.00  2149.82     0  01:55           0        6.87       0.947
  XR-storage           STORAGE    1054.62  1054.62     0  03:01        15.5        16.1       0.000
  
  
  **********************
  Node Surcharge Summary
  **********************
  
  Surcharging occurs when water rises above the top of the highest conduit.
  ---------------------------------------------------------------------
                                               Max. Height   Min. Depth
                                   Hours       Above Crown    Below Rim
  Node                 Type      Surcharged         Meters       Meters
  ---------------------------------------------------------------------
  WS02004401           JUNCTION        0.96          0.308        1.352
  WS02004402           JUNCTION        0.98          0.296        1.444
  WS02004403           JUNCTION        0.99          0.271        1.759
  WS02004404           JUNCTION        1.17          0.311        2.469
  WS02004406           JUNCTION        1.08          0.204        2.246
  WS02004413           JUNCTION        0.37          0.031        2.169
  WS02004405           JUNCTION        1.11          0.279        2.521
  WS02006109           JUNCTION        3.43          0.932        0.888
  WS02006110           JUNCTION        2.32          0.633        1.217
  WS02006111           JUNCTION        0.29          0.218        1.652
  WS02006112           JUNCTION        2.61          0.649        1.031
  WS02006113           JUNCTION        0.32          0.236        1.694
  WS02006115           JUNCTION        0.71          0.300        1.950
  WS02006116           JUNCTION        0.78          0.285        2.005
  WS02006230           JUNCTION        1.86          0.900        0.670
  WS02006231           JUNCTION        2.35          0.909        0.621
  WS02006232           JUNCTION        3.36          0.999        0.481
  WS02006234           JUNCTION        2.90          0.867        0.373
  WS02006235           JUNCTION        3.13          0.883        0.407
  WS02006238           JUNCTION        3.20          0.891        0.539
  WS02006240           JUNCTION        2.57          0.729        0.661
  WS02006242           JUNCTION        2.67          0.726        0.094
  WS02006243           JUNCTION        2.20          0.583        0.187
  WS02006245           JUNCTION        2.01          0.517        0.333
  WS02006247           JUNCTION        2.01          0.502        0.258
  WS02006248           JUNCTION        1.88          0.380        0.000
  WS02006249           JUNCTION        1.91          0.390        0.000
  WS02006239           JUNCTION        2.82          0.795        0.495
  WS02006251           JUNCTION        0.95          0.323        0.857
  WS02006252           JUNCTION        1.97          0.508        0.592
  WS02006253           JUNCTION        1.21          0.478        2.002
  WS02006256           JUNCTION        7.05          2.050        0.000
  WS02006228           JUNCTION        3.40          1.109        1.091
  HS02004817           JUNCTION        0.14          0.011        1.729
  YS02001748           JUNCTION        6.04          0.320        0.870
  YS02001751           JUNCTION        6.08          0.590        0.610
  YS02001754           JUNCTION        6.14          0.803        0.347
  YS02001762           JUNCTION        6.19          1.048        0.102
  YS02001765           JUNCTION        6.18          0.993        0.107
  YS02001767           JUNCTION        6.18          0.954        0.076
  YS02001770           JUNCTION        6.18          0.906        0.014
  YS02001774           JUNCTION        6.19          0.989        0.061
  YS02001779           JUNCTION        6.13          0.680        0.000
  YS02001882           JUNCTION        1.80          0.671        0.159
  YS02001884           JUNCTION        1.82          0.702        0.168
  YS02001759           JUNCTION        6.20          1.088        0.122
  YS02001887           JUNCTION        1.87          0.772        0.178
  YS02001890           JUNCTION        1.90          0.760        0.000
  YS02001898           JUNCTION        1.78          0.538        0.202
  YS02001901           JUNCTION        1.85          0.677        0.193
  YS02001904           JUNCTION        1.84          0.639        0.211
  YS02001907           JUNCTION        2.41          0.950        0.000
  YS02001910           JUNCTION        1.93          0.948        0.152
  YS02001915           JUNCTION        1.80          0.876        0.124
  YS02001918           JUNCTION        1.65          0.757        0.053
  YS02001619           JUNCTION        6.09          0.596        0.014
  YS02001629           JUNCTION        6.09          0.467        0.003
  YS02001641           JUNCTION        6.18          0.937        0.163
  YS02001644           JUNCTION        6.19          0.920        0.000
  YS02001652           JUNCTION        6.15          1.008        0.122
  YS02001655           JUNCTION        6.10          0.923        0.277
  YS02001920           JUNCTION        1.68          0.874        0.266
  YS02001923           JUNCTION        0.01          0.698        0.122
  YS02001926           JUNCTION        0.01          0.668        0.232
  YS02001929           JUNCTION        0.01          0.000        0.780
  YS02001658           JUNCTION        6.05          0.655        0.645
  YS02001661           JUNCTION        0.06          0.351        1.039
  YS02001622           JUNCTION        6.10          0.585        0.035
  YS02001633           JUNCTION        6.17          0.927        0.133
  YS02001649           JUNCTION        6.19          1.050        0.000
  YS02001757           JUNCTION        6.23          1.191        0.019
  YS02001895           JUNCTION        1.79          0.568        0.182
  YS02001625           JUNCTION        6.15          0.780        0.000
  YS02163301           JUNCTION        6.17          0.883        0.147
  YS02163601           JUNCTION        6.20          0.988        0.092
  YS02164001           JUNCTION        6.17          0.920        0.180
  YS02001647           JUNCTION        6.15          0.792        0.108
  YS02006553           JUNCTION        2.48          0.971        0.219
  YS02006561           JUNCTION        1.69          0.293        0.857
  YS02006556           JUNCTION        2.10          0.896        0.454
  YS02006558           JUNCTION        2.08          0.877        0.523
  YS02001783           JUNCTION        1.94          0.883        0.717
  YS02001784           JUNCTION        1.92          0.776        0.714
  YS02001786           JUNCTION        1.86          0.615        0.815
  YS02001788           JUNCTION        1.81          0.487        0.993
  YS02001790           JUNCTION        2.78          0.939        0.218
  YS02001791           JUNCTION        2.86          0.937        0.983
  YS02001793           JUNCTION        3.10          0.873        1.727
  
  
  *********************
  Node Flooding Summary
  *********************
  
  Flooding refers to all water that overflows a node, whether it ponds or not.
  --------------------------------------------------------------------------
                                                             Total   Maximum
                                 Maximum   Time of Max       Flood    Ponded
                        Hours       Rate    Occurrence      Volume     Depth
  Node                 Flooded       LPS   days hr:min    10^6 ltr    Meters
  --------------------------------------------------------------------------
  WS02006248              0.16     58.85      0  01:57       0.013     0.000
  WS02006249              1.13    187.83      0  02:40       0.292     0.000
  WS02006256              4.14    829.42      0  02:00       7.909     0.000
  YS02001779              3.66    752.44      0  03:01       4.282     0.000
  YS02001890              0.81    161.64      0  02:15       0.274     0.000
  YS02001907              1.53    714.65      0  02:16       2.681     0.000
  YS02001644              5.15   1606.45      0  03:01      13.258     0.000
  YS02001649              0.04     15.03      0  01:57       0.000     0.000
  YS02001625              2.13    435.04      0  02:15       1.967     0.000
  JK-storage              0.99    862.18      0  01:50       1.223     0.000
  XR-storage              4.67    674.58      0  03:01       5.098     0.000
  
  
  **********************
  Storage Volume Summary
  **********************
  
  --------------------------------------------------------------------------------------------------
                         Average     Avg  Evap Exfil       Maximum     Max    Time of Max    Maximum
                          Volume    Pcnt  Pcnt  Pcnt        Volume    Pcnt     Occurrence    Outflow
  Storage Unit           1000 m3    Full  Loss  Loss       1000 m3    Full    days hr:min        LPS
  --------------------------------------------------------------------------------------------------
  JK-storage               0.162      56     0     0         0.291     100       0  01:44     983.00
  CC-storage               3.334      21     0     0         4.055      26       0  03:01     400.00
  XR-storage               0.841      91     0     0         0.926     100       0  02:07     380.00
  
  
  ***********************
  Outfall Loading Summary
  ***********************
  
  ---------------------------------------------------------------------------------------------------------------------------------
                         Flow       Avg       Max       Total         Total         Total         Total         Total         Total
                         Freq      Flow      Flow      Volume           COD            SS            TN            TP         NH4-N
  Outfall Node           Pcnt       LPS       LPS    10^6 ltr            kg            kg            kg            kg            kg
  ---------------------------------------------------------------------------------------------------------------------------------
  WSC                  100.00    781.19   1341.33      20.353      2519.420      4493.281       141.231        16.225        84.346
  ---------------------------------------------------------------------------------------------------------------------------------
  System               100.00    781.19   1341.33      20.353      2519.420      4493.281       141.231        16.225        84.346
  
  
  ********************
  Link Flow Summary
  ********************
  
  -----------------------------------------------------------------------------
                                 Maximum  Time of Max   Maximum    Max/    Max/
                                  |Flow|   Occurrence   |Veloc|    Full    Full
  Link                 Type          LPS  days hr:min     m/sec    Flow   Depth
  -----------------------------------------------------------------------------
  WS02003066WSF200     CONDUIT    954.86     0  01:58      3.01    0.16    0.32
  WS02006287WS02006284 CONDUIT    735.71     0  01:54      2.45    0.34    0.41
  WS02006284WS02006280 CONDUIT    736.07     0  01:54      2.68    0.31    0.38
  WS02006280WS02006229 CONDUIT    758.12     0  01:55      4.30    0.16    0.58
  WS02006229WS02006228 CONDUIT    937.76     0  01:56      1.87    3.11    1.00
  WS02006256WS02006235 CONDUIT    263.51     0  06:32      3.73    2.79    1.00
  WS02006253WS02006251 CONDUIT    196.34     0  01:54      0.76    0.59    1.00
  WS02006252WS02006251 CONDUIT    404.82     0  06:50      3.22    1.49    1.00
  WS02006251WS02006249 CONDUIT    452.56     0  02:40      1.18    1.30    1.00
  WS02006249WS02006248 CONDUIT    416.14     0  07:30      1.19    2.28    1.00
  WS02006248WS02006247 CONDUIT    416.60     0  07:30      1.17    0.91    1.00
  WS02006247WS02006245 CONDUIT    416.77     0  07:30      1.14    3.30    1.00
  WS02006245WS02006243 CONDUIT    417.52     0  07:30      1.19    1.23    1.00
  WS02006243WS02006242 CONDUIT    418.13     0  07:30      1.09    0.89    1.00
  WS02006242WS02006240 CONDUIT    418.69     0  07:30      1.09    1.66    1.00
  WS02006240WS02006239 CONDUIT    419.51     0  07:30      1.09    1.32    1.00
  WS02006239WS02006238 CONDUIT    419.75     0  07:30      1.09    1.34    1.00
  WS02006238WS02006235 CONDUIT    421.14     0  07:30      1.09    0.94    1.00
  WS02006235WS02006234 CONDUIT    523.46     0  07:22      1.36    5.52    1.00
  WS02006234WS02006232 CONDUIT    523.71     0  07:22      1.36    1.06    1.00
  WS02006232WS02006231 CONDUIT    523.73     0  07:22      1.36    1.10    1.00
  WS02006231WS02006230 CONDUIT    523.58     0  07:22      1.36    7.94    1.00
  WS02006230WS02006229 CONDUIT    534.34     0  07:22      1.39   11.89    1.00
  WS02006228WS02006109 CONDUIT    938.06     0  01:56      1.87    4.10    1.00
  WS02006116WS02004401 CONDUIT    967.92     0  01:56      1.23    1.33    1.00
  WS02006115WS02006116 CONDUIT    968.43     0  01:56      1.23    1.24    1.00
  WS02006113WS02006111 CONDUIT    938.58     0  01:56      2.59    1.13    1.00
  WS02006112WS02006115 CONDUIT    967.38     0  01:56      1.23    0.57    1.00
  WS02006111WS02006112 CONDUIT    938.80     0  01:56      1.87    0.45    1.00
  WS02006110WS02006113 CONDUIT    938.87     0  01:56      1.87    0.85    1.00
  WS02006109WS02006110 CONDUIT    939.12     0  01:56      1.87    1.81    1.00
  WS02004411WS02004412 CONDUIT    953.56     0  01:58      1.26    1.35    0.93
  WS02004401WS02004402 CONDUIT    968.36     0  01:56      1.23    1.16    1.00
  WS02004413WS02003067 CONDUIT    953.89     0  01:58      1.57    0.41    0.72
  WS02004412WS02004413 CONDUIT    953.67     0  01:58      1.23    0.64    0.96
  WS02004410WS02004411 CONDUIT    952.31     0  01:58      1.24    1.30    0.95
  WS02004409WS02004410 CONDUIT    957.00     0  01:57      1.24    1.24    0.97
  WS02004407WS02004409 CONDUIT    968.32     0  01:56      1.73    0.34    0.69
  WS02004406WS02004407 CONDUIT    970.44     0  01:56      1.65    0.43    0.70
  WS02004405WS02004406 CONDUIT    970.35     0  01:56      1.24    1.91    1.00
  WS02004404WS02004405 CONDUIT    969.90     0  01:56      1.23    9.50    1.00
  WS02004403WS02004404 CONDUIT    969.50     0  01:56      1.23    0.70    1.00
  WS02004402WS02004403 CONDUIT    968.80     0  01:56      1.23    1.39    1.00
  WS02004139WS02001211 CONDUIT    382.78     0  02:26      0.90    0.48    0.64
  WS02004138WS02004139 CONDUIT    394.13     0  00:00      3.62    0.08    0.47
  WS02003067WS02003066 CONDUIT    954.40     0  01:58      1.66    0.31    0.51
  WS02001213WS02003059 CONDUIT    397.96     0  05:49      0.89    0.66    0.87
  WS02001212WS02001213 CONDUIT    395.09     0  02:25      1.32    0.61    0.56
  WS02001211WS02001212 CONDUIT    392.87     0  02:26      0.78    0.30    0.71
  WS02003072WS02003073 CONDUIT   1339.14     0  02:04      1.96    2.89    0.58
  WS02003069WS02003072 CONDUIT   1338.85     0  02:04      1.82    0.64    0.62
  WS02003060WS02003069 CONDUIT   1338.54     0  02:03      2.03    0.52    0.57
  WS02003059WS02003060 CONDUIT    403.21     0  05:49      0.95    0.26    0.77
  HS02004901HS02004770 CONDUIT     36.83     0  01:52      0.10    0.14    0.54
  HS02004876HS02004881 CONDUIT    139.06     0  01:54      1.26    1.48    0.16
  HS02004870HS02004876 CONDUIT    112.62     0  01:54      0.85    0.07    0.19
  HS02004842HS02004848 CONDUIT     18.18     0  02:06      0.08    0.01    0.34
  HS02004837HS02004842 CONDUIT     18.64     0  02:07      0.42    0.01    0.35
  HS02004830HS02004837 CONDUIT     67.83     0  01:54      0.68    0.07    0.14
  HS02004824HS02004830 CONDUIT     68.04     0  01:56      0.62    0.09    0.18
  HS02004817HS02004824 CONDUIT    136.40     0  01:57      0.32    0.06    0.60
  HS02004770HS02004777 CONDUIT    189.67     0  01:52      0.49    0.35    0.55
  HS02004799HS02004480 CONDUIT    470.62     0  01:53      1.09    0.59    0.62
  HS02004792HS02004799 CONDUIT    430.86     0  01:53      1.22    0.26    0.50
  HS02004788HS02004792 CONDUIT    248.72     0  01:54      1.29    0.16    0.28
  HS02004785HS02004788 CONDUIT    189.52     0  01:53      0.92    1.43    0.30
  HS02004777HS02004785 CONDUIT    189.40     0  01:53      0.59    0.23    0.46
  HS02004480HS02004478 CONDUIT    554.36     0  01:53      1.59    2.33    0.50
  HS02004479HS02004480 CONDUIT     83.72     0  01:53      0.37    0.08    0.59
  HS02004862HS02004870 CONDUIT     86.17     0  01:55      0.82    0.09    0.15
  HS02004848HS02004852 CONDUIT     40.37     0  01:54      0.54    0.05    0.11
  HS02004856HS02004862 CONDUIT     60.18     0  01:54      0.61    0.06    0.14
  HS02004852HS02004856 CONDUIT     40.43     0  01:55      0.35    0.05    0.17
  HS02004802HS02004478 CONDUIT    184.72     0  01:57      0.53    0.16    0.50
  HS02004478WS02006287 CONDUIT    735.61     0  01:54      2.18    0.21    0.38
  HS02004817HS02004807 CONDUIT    137.25     0  01:57      0.26    0.08    0.77
  HS02004807HS02004802 CONDUIT    183.92     0  01:56      0.47    0.35    0.56
  YS02001759YS02001757 CONDUIT    877.89     0  01:56      1.12    0.62    1.00
  YS02001762YS02001759 CONDUIT    434.60     0  01:55      0.55    0.50    1.00
  YS02001765YS02001762 CONDUIT    433.63     0  01:55      0.55    0.41    1.00
  YS02001770YS02001767 CONDUIT    434.03     0  01:55      0.55    1.72    1.00
  YS02001774YS02001770 CONDUIT    752.40     0  03:01      0.96    0.48    1.00
  YS02001779YS02001774 CONDUIT    752.44     0  03:01      0.96    0.38    1.00
  YS02001649YS02001757 CONDUIT   1000.40     0  01:49      1.27    0.61    1.00
  YS02001767YS02001765 CONDUIT    434.21     0  01:55      0.55    0.55    1.00
  YS02006561YS02001783 CONDUIT    982.74     0  02:15      2.14    0.51    1.00
  YS02001783YS02001784 CONDUIT    982.83     0  02:12      1.96    1.35    1.00
  YS02001784YS02001785 CONDUIT    983.51     0  02:13      1.96    2.29    1.00
  YS02001788YS02001790 CONDUIT    983.94     0  02:15      2.44    0.73    1.00
  YS02001790YS02001791 CONDUIT    984.39     0  02:15      2.91    1.07    1.00
  YS02001791YS02001793 CONDUIT    984.56     0  02:15      5.76    0.42    1.00
  YS02001910YS02001907 CONDUIT    660.91     0  01:52      0.84    0.37    1.00
  YS02001786YS02001788 CONDUIT    983.84     0  02:15      2.31    1.90    1.00
  YS02001915YS02001910 CONDUIT    661.21     0  01:52      0.84    0.33    1.00
  YS02001918YS02001915 CONDUIT    380.94     0  01:52      0.49    0.21    1.00
  YS02001923YS02001920 CONDUIT    376.39     0  01:52      0.82    0.17    1.00
  YS02001926YS02001923 CONDUIT    316.02     0  01:53      0.92    0.45    1.00
  YS02001929YS02001926 CONDUIT    267.73     0  01:52      0.98    0.13    1.00
  YS02001920YS02001918 CONDUIT    380.18     0  01:52      0.77    0.37    1.00
  YS02001629YS02163301 CONDUIT    221.00     0  01:48      0.28    0.27    1.00
  YS02001619YS02001622 CONDUIT    389.35     0  02:16      0.74    0.57    1.00
  YS02001622YS02001625 CONDUIT    388.69     0  02:16      0.49    0.21    1.00
  YS02001625YS02001629 CONDUIT    221.29     0  01:48      0.29    0.11    1.00
  YS02163301YS02001633 CONDUIT    221.91     0  01:47      0.28    0.21    1.00
  YS02163601YS02164001 CONDUIT    456.51     0  01:48      0.58    0.40    1.00
  YS02164001YS02001641 CONDUIT    455.36     0  01:48      0.58    0.62    1.00
  YS02001641YS02001644 CONDUIT    456.40     0  01:48      0.58    1.48    1.00
  YS02001647YS02001649 CONDUIT    846.44     0  03:01      1.08    0.45    1.00
  YS02006553YS02006556 CONDUIT    718.33     0  03:35      0.91    0.61    1.00
  YS02006556YS02006558 CONDUIT    718.56     0  03:35      0.91    0.57    1.00
  YSB6556YSB1171       CONDUIT     46.63     0  01:54      0.14    0.05    0.84
  YS02001907YS02006553 CONDUIT    718.22     0  03:35      0.80    0.84    1.00
  YS02006558YS02006561 CONDUIT    982.83     0  02:15      3.48    2.17    1.00
  YS02001633YS02163601 CONDUIT    457.15     0  01:48      0.58    0.48    1.00
  YS02001644YS02001647 CONDUIT    846.45     0  03:01      1.08    0.50    1.00
  YS02001745YS02001748 CONDUIT    450.20     0  02:16      1.67    0.17    0.98
  YS02001748YS02001751 CONDUIT    450.43     0  02:16      1.21    0.23    1.00
  YS02001751YS02001754 CONDUIT    449.95     0  02:16      1.02    0.22    1.00
  YS02001754YS02001757 CONDUIT    450.68     0  02:16      0.57    0.18    1.00
  YS02001882YS02001884 CONDUIT     59.01     0  01:48      0.16    0.07    1.00
  YS02001884YS02001887 CONDUIT     66.48     0  01:46      0.12    0.09    1.00
  YS02001890YS02001895 CONDUIT    521.72     0  01:51      0.66    0.24    1.00
  YS02001895YS02001898 CONDUIT    521.19     0  01:51      0.66    0.90    1.00
  YS02001898YS02001901 CONDUIT    521.72     0  01:51      0.66    0.34    1.00
  YS02001901YS02001904 CONDUIT    521.76     0  01:51      0.66    0.81    1.00
  YS02001904YS02001907 CONDUIT    520.84     0  01:51      0.66    0.18    1.00
  YS02001887YS02001890 CONDUIT    677.06     0  02:11      0.86    1.16    1.00
  YS02001652YS02001649 CONDUIT    516.52     0  02:10      0.71    0.26    1.00
  YS02001655YS02001652 CONDUIT    514.36     0  02:09      1.09    0.25    1.00
  YS02001658YS02001655 CONDUIT    513.26     0  02:12      1.41    0.22    1.00
  YS02001661YS02001658 CONDUIT    512.67     0  02:12      1.78    0.20    1.00
  YS02001664YS02001661 CONDUIT    755.94     0  01:53      1.69    0.24    0.77
  YSB1154YSB6556       CONDUIT     46.63     0  01:52      0.16    0.08    0.75
  YSB1174YSB1171       CONDUIT     38.39     0  01:50      0.11    0.06    0.87
  YSB1171HS02004479    CONDUIT     83.75     0  01:53      0.54    0.06    0.70
  HS02004881HS02006253 CONDUIT    157.81     0  01:54      2.75    0.03    0.54
  YS02001793JiankangQianchi CONDUIT    984.37     0  02:11     16.55    0.08    1.00
  YS02001757CaochengTiaoxuchi CONDUIT   2149.82     0  01:55      3.55    0.94    1.00
  WSF200WS02003060     CONDUIT    955.58     0  01:58      1.97    0.21    0.45
  1                    CONDUIT   1341.33     0  02:05      3.59    0.47    0.48
  CC-Pump-1            PUMP       200.00     0  02:30              1.00
  CC-Pump-2            PUMP       200.00     0  05:10              1.00
  JK-Pump-1            PUMP       300.00     0  02:00              1.00
  JK-Pump-2            PUMP       683.00     0  02:00              1.00
  XR-Pump-1            PUMP        95.00     0  00:00              1.00
  XR-Pump-2            PUMP        95.00     0  00:00              1.00
  XR-Pump-3            PUMP        95.00     0  00:00              1.00
  XR-Pump-4            PUMP        95.00     0  00:00              1.00
  
  
  ***************************
  Flow Classification Summary
  ***************************
  
  -------------------------------------------------------------------------------------
                      Adjusted    ---------- Fraction of Time in Flow Class ---------- 
                       /Actual         Up    Down  Sub   Sup   Up    Down  Norm  Inlet 
  Conduit               Length    Dry  Dry   Dry   Crit  Crit  Crit  Crit  Ltd   Ctrl  
  -------------------------------------------------------------------------------------
  WS02003066WSF200        1.00   0.01  0.03  0.00  0.00  0.97  0.00  0.00  0.54  0.00
  WS02006287WS02006284    1.00   0.04  0.01  0.00  0.58  0.37  0.00  0.00  0.63  0.00
  WS02006284WS02006280    1.00   0.04  0.00  0.00  0.00  0.00  0.00  0.96  0.00  0.00
  WS02006280WS02006229    1.00   0.05  0.00  0.00  0.02  0.03  0.00  0.90  0.01  0.00
  WS02006229WS02006228    1.00   0.00  0.00  0.00  1.00  0.00  0.00  0.00  0.00  0.00
  WS02006256WS02006235    1.00   0.01  0.00  0.00  0.99  0.00  0.00  0.00  0.00  0.00
  WS02006253WS02006251    1.00   0.02  0.02  0.00  0.95  0.00  0.01  0.00  0.00  0.00
  WS02006252WS02006251    1.00   0.12  0.00  0.00  0.16  0.01  0.72  0.00  0.00  0.00
  WS02006251WS02006249    1.00   0.00  0.00  0.00  1.00  0.00  0.00  0.00  0.31  0.00
  WS02006249WS02006248    1.00   0.00  0.00  0.00  0.87  0.00  0.12  0.00  0.00  0.00
  WS02006248WS02006247    1.00   0.01  0.00  0.00  0.98  0.00  0.00  0.01  0.16  0.00
  WS02006247WS02006245    1.00   0.01  0.00  0.00  0.97  0.00  0.00  0.03  0.00  0.00
  WS02006245WS02006243    1.00   0.01  0.00  0.00  0.94  0.00  0.00  0.06  0.01  0.00
  WS02006243WS02006242    1.00   0.01  0.00  0.00  0.99  0.00  0.00  0.00  0.23  0.00
  WS02006242WS02006240    1.00   0.01  0.00  0.00  0.98  0.00  0.01  0.00  0.00  0.00
  WS02006240WS02006239    1.00   0.01  0.00  0.00  0.94  0.00  0.00  0.05  0.01  0.00
  WS02006239WS02006238    1.00   0.01  0.00  0.00  0.99  0.00  0.00  0.00  0.07  0.00
  WS02006238WS02006235    1.00   0.01  0.00  0.00  0.99  0.00  0.00  0.00  0.00  0.00
  WS02006235WS02006234    1.00   0.01  0.00  0.00  0.96  0.00  0.03  0.00  0.00  0.00
  WS02006234WS02006232    1.00   0.01  0.00  0.00  0.99  0.00  0.00  0.00  0.03  0.00
  WS02006232WS02006231    1.00   0.01  0.00  0.00  0.99  0.00  0.00  0.00  0.00  0.00
  WS02006231WS02006230    1.00   0.01  0.00  0.00  0.64  0.00  0.35  0.00  0.00  0.00
  WS02006230WS02006229    1.00   0.00  0.00  0.00  0.99  0.00  0.00  0.01  0.00  0.00
  WS02006228WS02006109    1.00   0.00  0.00  0.00  1.00  0.00  0.00  0.00  0.01  0.00
  WS02006116WS02004401    1.00   0.02  0.00  0.00  0.98  0.00  0.00  0.00  0.00  0.00
  WS02006115WS02006116    1.00   0.02  0.00  0.00  0.98  0.00  0.00  0.00  0.00  0.00
  WS02006113WS02006111    1.00   0.01  0.00  0.00  0.09  0.89  0.00  0.00  0.18  0.00
  WS02006112WS02006115    1.00   0.01  0.00  0.00  0.98  0.00  0.00  0.00  0.00  0.00
  WS02006111WS02006112    1.00   0.01  0.00  0.00  0.98  0.00  0.00  0.00  0.81  0.00
  WS02006110WS02006113    1.00   0.00  0.01  0.00  0.99  0.00  0.00  0.00  0.00  0.00
  WS02006109WS02006110    1.00   0.00  0.00  0.00  0.99  0.00  0.00  0.00  0.00  0.00
  WS02004411WS02004412    1.00   0.03  0.00  0.00  0.97  0.00  0.00  0.00  0.00  0.00
  WS02004401WS02004402    1.00   0.02  0.00  0.00  0.98  0.00  0.00  0.00  0.00  0.00
  WS02004413WS02003067    1.00   0.03  0.00  0.00  0.00  0.00  0.97  0.00  0.00  0.00
  WS02004412WS02004413    1.00   0.03  0.00  0.00  0.97  0.00  0.00  0.00  0.00  0.00
  WS02004410WS02004411    1.00   0.03  0.00  0.00  0.97  0.00  0.00  0.00  0.00  0.00
  WS02004409WS02004410    1.00   0.02  0.00  0.00  0.98  0.00  0.00  0.00  0.00  0.00
  WS02004407WS02004409    1.00   0.02  0.00  0.00  0.97  0.00  0.00  0.00  0.93  0.00
  WS02004406WS02004407    1.00   0.00  0.02  0.00  0.98  0.00  0.00  0.00  0.00  0.00
  WS02004405WS02004406    1.00   0.00  0.00  0.00  1.00  0.00  0.00  0.00  0.03  0.00
  WS02004404WS02004405    1.00   0.00  0.00  0.00  1.00  0.00  0.00  0.00  0.00  0.00
  WS02004403WS02004404    1.00   0.00  0.02  0.00  0.98  0.00  0.00  0.00  0.00  0.00
  WS02004402WS02004403    1.00   0.02  0.00  0.00  0.98  0.00  0.00  0.00  0.00  0.00
  WS02004139WS02001211    1.00   0.00  0.00  0.00  1.00  0.00  0.00  0.00  0.00  0.00
  WS02004138WS02004139    1.00   0.00  0.00  0.00  1.00  0.00  0.00  0.00  1.00  0.00
  WS02003067WS02003066    1.00   0.03  0.00  0.00  0.97  0.00  0.00  0.00  0.00  0.00
  WS02001213WS02003059    1.00   0.00  0.00  0.00  1.00  0.00  0.00  0.00  0.00  0.00
  WS02001212WS02001213    1.00   0.00  0.00  0.00  0.93  0.00  0.07  0.00  0.00  0.00
  WS02001211WS02001212    1.00   0.00  0.00  0.00  1.00  0.00  0.00  0.00  0.00  0.00
  WS02003072WS02003073    1.00   0.00  0.00  0.00  0.00  0.00  0.00  1.00  0.00  0.00
  WS02003069WS02003072    1.00   0.00  0.00  0.00  1.00  0.00  0.00  0.00  0.08  0.00
  WS02003060WS02003069    1.00   0.00  0.00  0.00  0.99  0.01  0.00  0.00  0.06  0.00
  WS02003059WS02003060    1.00   0.00  0.00  0.00  1.00  0.00  0.00  0.00  0.00  0.00
  HS02004901HS02004770    1.00   0.04  0.00  0.00  0.96  0.00  0.00  0.00  0.00  0.00
  HS02004876HS02004881    1.00   0.01  0.00  0.00  0.87  0.12  0.00  0.00  0.00  0.00
  HS02004870HS02004876    1.00   0.00  0.00  0.00  1.00  0.00  0.00  0.00  0.95  0.00
  HS02004842HS02004848    1.00   0.00  0.04  0.00  0.96  0.00  0.00  0.00  0.56  0.00
  HS02004837HS02004842    1.00   0.00  0.00  0.00  1.00  0.00  0.00  0.00  0.11  0.00
  HS02004830HS02004837    1.00   0.00  0.00  0.00  1.00  0.00  0.00  0.00  0.99  0.00
  HS02004824HS02004830    1.00   0.00  0.00  0.00  1.00  0.00  0.00  0.00  0.03  0.00
  HS02004817HS02004824    1.00   0.00  0.00  0.00  1.00  0.00  0.00  0.00  0.92  0.00
  HS02004770HS02004777    1.00   0.00  0.04  0.00  0.96  0.00  0.00  0.00  0.02  0.00
  HS02004799HS02004480    1.00   0.00  0.01  0.00  0.95  0.00  0.04  0.00  0.00  0.00
  HS02004792HS02004799    1.00   0.00  0.00  0.00  1.00  0.00  0.00  0.00  0.98  0.00
  HS02004788HS02004792    1.00   0.00  0.00  0.00  1.00  0.00  0.00  0.00  0.98  0.00
  HS02004785HS02004788    1.00   0.00  0.00  0.00  1.00  0.00  0.00  0.00  0.00  0.00
  HS02004777HS02004785    1.00   0.00  0.00  0.00  1.00  0.00  0.00  0.00  0.11  0.00
  HS02004480HS02004478    1.00   0.04  0.00  0.00  0.63  0.00  0.00  0.32  0.00  0.00
  HS02004479HS02004480    1.00   0.01  0.00  0.00  0.99  0.00  0.00  0.00  0.11  0.00
  HS02004862HS02004870    1.00   0.00  0.00  0.00  1.00  0.00  0.00  0.00  0.03  0.00
  HS02004848HS02004852    1.00   0.04  0.00  0.00  0.96  0.00  0.00  0.00  0.79  0.00
  HS02004856HS02004862    1.00   0.00  0.05  0.00  0.95  0.00  0.00  0.00  0.84  0.00
  HS02004852HS02004856    1.00   0.04  0.00  0.00  0.96  0.00  0.00  0.00  0.77  0.00
  HS02004802HS02004478    1.00   0.04  0.00  0.00  0.96  0.00  0.00  0.00  0.02  0.00
  HS02004478WS02006287    1.00   0.05  0.00  0.00  0.70  0.25  0.00  0.00  0.62  0.00
  HS02004817HS02004807    1.00   0.00  0.04  0.00  0.96  0.00  0.00  0.00  0.01  0.00
  HS02004807HS02004802    1.00   0.04  0.00  0.00  0.95  0.00  0.00  0.00  0.00  0.00
  YS02001759YS02001757    1.00   0.00  0.00  0.00  1.00  0.00  0.00  0.00  0.15  0.00
  YS02001762YS02001759    1.00   0.00  0.00  0.00  1.00  0.00  0.00  0.00  0.02  0.00
  YS02001765YS02001762    1.00   0.00  0.00  0.00  1.00  0.00  0.00  0.00  0.13  0.00
  YS02001770YS02001767    1.00   0.00  0.00  0.00  1.00  0.00  0.00  0.00  0.00  0.00
  YS02001774YS02001770    1.00   0.00  0.04  0.00  0.96  0.00  0.00  0.00  0.02  0.00
  YS02001779YS02001774    1.00   0.00  0.00  0.00  1.00  0.00  0.00  0.00  0.17  0.00
  YS02001649YS02001757    1.00   0.00  0.00  0.00  1.00  0.00  0.00  0.00  0.15  0.00
  YS02001767YS02001765    1.00   0.00  0.00  0.00  1.00  0.00  0.00  0.00  0.00  0.00
  YS02006561YS02001783    1.00   0.05  0.00  0.00  0.43  0.51  0.00  0.00  0.45  0.00
  YS02001783YS02001784    1.00   0.00  0.05  0.00  0.95  0.00  0.00  0.00  0.00  0.00
  YS02001784YS02001785    1.00   0.00  0.00  0.00  1.00  0.00  0.00  0.00  0.16  0.00
  YS02001788YS02001790    1.00   0.00  0.00  0.00  0.50  0.50  0.00  0.00  0.34  0.00
  YS02001790YS02001791    1.00   0.00  0.00  0.00  0.45  0.55  0.00  0.00  0.40  0.00
  YS02001791YS02001793    1.00   0.00  0.00  0.00  0.48  0.52  0.00  0.00  0.02  0.00
  YS02001910YS02001907    1.00   0.00  0.00  0.00  0.99  0.00  0.00  0.01  0.12  0.00
  YS02001786YS02001788    1.00   0.00  0.00  0.00  0.48  0.52  0.00  0.00  0.00  0.00
  YS02001915YS02001910    1.00   0.00  0.00  0.00  0.99  0.01  0.00  0.00  0.13  0.00
  YS02001918YS02001915    1.00   0.00  0.00  0.00  0.99  0.00  0.00  0.00  0.50  0.00
  YS02001923YS02001920    1.00   0.00  0.00  0.00  1.00  0.00  0.00  0.00  0.74  0.00
  YS02001926YS02001923    1.00   0.00  0.03  0.00  0.27  0.00  0.70  0.00  0.00  0.00
  YS02001929YS02001926    1.00   0.00  0.04  0.00  0.96  0.00  0.00  0.00  0.65  0.00
  YS02001920YS02001918    1.00   0.00  0.00  0.00  1.00  0.00  0.00  0.00  0.00  0.00
  YS02001629YS02163301    1.00   0.05  0.00  0.00  0.95  0.00  0.00  0.00  0.00  0.00
  YS02001619YS02001622    1.00   0.04  0.00  0.00  0.96  0.00  0.00  0.00  0.00  0.00
  YS02001622YS02001625    1.00   0.04  0.00  0.00  0.96  0.00  0.00  0.00  0.03  0.00
  YS02001625YS02001629    1.00   0.04  0.01  0.00  0.93  0.00  0.01  0.00  0.00  0.00
  YS02163301YS02001633    1.00   0.00  0.05  0.00  0.95  0.00  0.00  0.00  0.00  0.00
  YS02163601YS02164001    1.00   0.00  0.03  0.00  0.97  0.00  0.00  0.00  0.00  0.00
  YS02164001YS02001641    1.00   0.00  0.03  0.00  0.97  0.00  0.00  0.00  0.06  0.00
  YS02001641YS02001644    1.00   0.00  0.00  0.00  1.00  0.00  0.00  0.00  0.00  0.00
  YS02001647YS02001649    1.00   0.00  0.05  0.00  0.95  0.00  0.00  0.00  0.01  0.00
  YS02006553YS02006556    1.00   0.00  0.00  0.00  1.00  0.00  0.00  0.00  0.03  0.00
  YS02006556YS02006558    1.00   0.00  0.00  0.00  1.00  0.00  0.00  0.00  0.00  0.00
  YSB6556YSB1171          1.00   0.01  0.03  0.00  0.96  0.00  0.00  0.00  0.00  0.00
  YS02001907YS02006553    1.00   0.00  0.01  0.00  0.99  0.00  0.00  0.00  0.00  0.00
  YS02006558YS02006561    1.00   0.05  0.00  0.00  0.28  0.67  0.00  0.00  0.44  0.00
  YS02001633YS02163601    1.00   0.00  0.00  0.00  1.00  0.00  0.00  0.00  0.15  0.00
  YS02001644YS02001647    1.00   0.00  0.05  0.00  0.95  0.00  0.00  0.00  0.00  0.00
  YS02001745YS02001748    1.00   0.00  0.00  0.00  0.92  0.00  0.00  0.08  0.01  0.00
  YS02001748YS02001751    1.00   0.00  0.00  0.00  0.97  0.03  0.00  0.00  0.14  0.00
  YS02001751YS02001754    1.00   0.00  0.00  0.00  0.94  0.00  0.00  0.06  0.01  0.00
  YS02001754YS02001757    1.00   0.00  0.00  0.00  1.00  0.00  0.00  0.00  0.17  0.00
  YS02001882YS02001884    1.00   0.05  0.00  0.00  0.95  0.00  0.00  0.00  0.00  0.00
  YS02001884YS02001887    1.00   0.02  0.02  0.00  0.96  0.00  0.00  0.00  0.00  0.00
  YS02001890YS02001895    1.00   0.00  0.05  0.00  0.95  0.00  0.00  0.00  0.00  0.00
  YS02001895YS02001898    1.00   0.05  0.00  0.00  0.94  0.00  0.01  0.00  0.00  0.00
  YS02001898YS02001901    1.00   0.05  0.00  0.00  0.95  0.00  0.00  0.00  0.01  0.00
  YS02001901YS02001904    1.00   0.05  0.00  0.00  0.95  0.00  0.00  0.00  0.00  0.00
  YS02001904YS02001907    1.00   0.00  0.05  0.00  0.95  0.00  0.00  0.00  0.00  0.00
  YS02001887YS02001890    1.00   0.00  0.00  0.00  0.99  0.00  0.01  0.00  0.00  0.00
  YS02001652YS02001649    1.00   0.00  0.00  0.00  1.00  0.00  0.00  0.00  0.15  0.00
  YS02001655YS02001652    1.00   0.00  0.00  0.00  0.94  0.00  0.00  0.06  0.01  0.00
  YS02001658YS02001655    1.00   0.00  0.04  0.00  0.93  0.03  0.00  0.00  0.02  0.00
  YS02001661YS02001658    1.00   0.04  0.00  0.00  0.92  0.04  0.00  0.00  0.01  0.00
  YS02001664YS02001661    1.00   0.04  0.00  0.00  0.92  0.03  0.00  0.00  0.10  0.00
  YSB1154YSB6556          1.00   0.04  0.00  0.00  0.96  0.00  0.00  0.00  0.01  0.00
  YSB1174YSB1171          1.00   0.02  0.02  0.00  0.97  0.00  0.00  0.00  0.00  0.00
  YSB1171HS02004479       1.00   0.01  0.00  0.00  0.98  0.00  0.00  0.01  0.10  0.00
  HS02004881HS02006253    1.00   0.02  0.00  0.00  0.59  0.03  0.00  0.36  0.46  0.00
  YS02001793JiankangQianchi    1.00   0.00  0.00  0.00  0.73  0.27  0.00  0.00  0.36  0.00
  YS02001757CaochengTiaoxuchi    1.00   0.00  0.07  0.00  0.90  0.03  0.00  0.00  0.00  0.00
  WSF200WS02003060        1.00   0.00  0.01  0.00  0.99  0.00  0.00  0.00  0.45  0.00
  1                       1.00   0.00  0.00  0.00  0.00  1.00  0.00  0.00  0.56  0.00
  
  
  *************************
  Conduit Surcharge Summary
  *************************
  
  ----------------------------------------------------------------------------
                                                           Hours        Hours 
                         --------- Hours Full --------   Above Full   Capacity
  Conduit                Both Ends  Upstream  Dnstream   Normal Flow   Limited
  ----------------------------------------------------------------------------
  WS02006229WS02006228        3.40      3.47      3.40      4.30         3.40
  WS02006256WS02006235        5.62      5.62      7.05      4.47         0.01
  WS02006253WS02006251        1.84      1.85      1.87      0.01         0.02
  WS02006252WS02006251        1.19      1.19      1.97      1.35         0.01
  WS02006251WS02006249        1.85      1.86      1.91      0.80         0.71
  WS02006249WS02006248        1.88      1.88      1.91      2.16         0.01
  WS02006248WS02006247        1.90      1.90      2.01      0.01         0.01
  WS02006247WS02006245        2.01      2.07      2.01      2.92         1.74
  WS02006245WS02006243        2.07      2.07      2.20      0.13         0.22
  WS02006243WS02006242        2.25      2.25      2.67      0.01         0.01
  WS02006242WS02006240        2.57      2.57      2.83      1.39         0.01
  WS02006240WS02006239        2.62      2.62      2.82      0.73         0.54
  WS02006239WS02006238        3.04      3.05      3.20      0.78         0.63
  WS02006238WS02006235        3.19      3.19      3.28      0.01         0.02
  WS02006235WS02006234        2.90      2.90      3.13      5.26         0.01
  WS02006234WS02006232        3.00      3.00      3.36      0.72         0.72
  WS02006232WS02006231        2.35      2.35      3.36      0.83         0.01
  WS02006231WS02006230        1.86      1.86      2.47      5.52         0.02
  WS02006230WS02006229        3.82      4.06      3.82      5.88         3.62
[...]
  YS02001779YS02001774        6.13      6.13      6.19      0.01         0.01
  YS02001649YS02001757        6.19      6.19      6.23      0.01         0.01
  YS02001767YS02001765        6.18      6.18      6.18      0.01         0.01
  YS02006561YS02001783        1.69      1.69      1.94      0.01         0.01
  YS02001783YS02001784        1.92      1.94      1.92      2.12         1.89
  YS02001784YS02001785        1.86      1.92      1.86      2.91         1.86
  YS02001788YS02001790        1.81      1.81      2.78      0.01         0.01
  YS02001790YS02001791        2.78      2.78      2.86      1.82         1.80
  YS02001791YS02001793        2.86      2.86      3.18      0.01         0.01
  YS02001910YS02001907        1.93      1.93      2.41      0.01         0.01
  YS02001786YS02001788        1.81      1.86      1.81      2.53         1.81
  YS02001915YS02001910        1.80      1.80      1.93      0.01         0.01
  YS02001918YS02001915        1.65      1.65      1.80      0.01         0.01
  YS02001923YS02001920        1.49      1.49      1.68      0.01         0.01
  YS02001926YS02001923        0.01      0.01      0.01      0.01         0.01
  YS02001929YS02001926        0.01      0.01      0.01      0.01         0.01
  YS02001920YS02001918        1.65      1.65      1.68      0.01         0.01
  YS02001629YS02163301        6.16      6.16      6.17      0.01         0.01
  YS02001619YS02001622        6.09      6.09      6.10      0.01         0.02
  YS02001622YS02001625        6.10      6.10      6.15      0.01         0.01
  YS02001625YS02001629        6.09      6.09      6.15      0.01         0.01
  YS02163301YS02001633        6.17      6.17      6.18      0.01         0.01
  YS02163601YS02164001        6.17      6.17      6.20      0.01         0.01
  YS02164001YS02001641        6.17      6.17      6.18      0.01         0.02
  YS02001641YS02001644        6.18      6.18      6.19      2.38         2.54
  YS02001647YS02001649        6.15      6.15      6.19      0.01         0.01
  YS02006553YS02006556        2.10      2.10      2.48      0.01         0.01
  YS02006556YS02006558        2.19      2.19      2.55      0.01         0.01
  YSB6556YSB1171              0.01      0.01      0.30      0.01         0.01
  YS02001907YS02006553        2.93      2.93      3.12      0.01         0.01
  YS02006558YS02006561        1.78      2.08      1.78      2.77         1.78
  YS02001633YS02163601        6.17      6.17      6.20      0.01         0.01
  YS02001644YS02001647        6.15      6.15      6.19      0.01         0.01
  YS02001745YS02001748        0.01      0.01      6.04      0.01         0.01
  YS02001748YS02001751        6.05      6.05      6.08      0.01         0.01
  YS02001751YS02001754        6.08      6.08      6.14      0.01         0.01
  YS02001754YS02001757        6.15      6.15      6.23      0.01         0.01
  YS02001882YS02001884        1.80      1.80      1.82      0.01         0.01
  YS02001884YS02001887        1.85      1.85      1.87      0.01         0.01
  YS02001890YS02001895        1.79      1.79      1.95      0.01         0.01
  YS02001895YS02001898        1.78      1.78      1.79      0.01         0.01
  YS02001898YS02001901        1.79      1.79      1.85      0.01         0.01
  YS02001901YS02001904        1.84      1.84      1.85      0.01         0.01
  YS02001904YS02001907        1.84      1.84      2.50      0.01         0.01
  YS02001887YS02001890        1.90      1.90      1.92      0.52         0.01
  YS02001652YS02001649        6.16      6.16      6.19      0.01         0.01
  YS02001655YS02001652        6.10      6.10      6.15      0.01         0.01
  YS02001658YS02001655        6.05      6.05      6.10      0.01         0.01
  YS02001661YS02001658        0.05      0.05      6.05      0.01         0.01
  YS02001664YS02001661        0.01      0.01      1.81      0.01         0.01
  HS02004881HS02006253        0.01      0.01      1.21      0.01         0.01
  YS02001793JiankangQianchi        3.10      3.10      4.77      0.01         0.01
  YS02001757CaochengTiaoxuchi        5.75      5.75      6.23      0.01         0.01
  
  
  ***************
  Pumping Summary
  ***************
  
  ---------------------------------------------------------------------------------------------------------
                                                  Min       Avg       Max     Total     Power    % Time Off
                        Percent   Number of      Flow      Flow      Flow    Volume     Usage    Pump Curve
  Pump                 Utilized   Start-Ups       LPS       LPS       LPS  10^6 ltr     Kw-hr    Low   High
  ---------------------------------------------------------------------------------------------------------
  CC-Pump-1               48.92           5      0.00    131.61    200.00     1.800      1.77    0.0    0.0
  CC-Pump-2               31.91           6      0.00    105.78    200.00     1.080      1.33    0.0    0.0
  JK-Pump-1               59.57           4      0.00    237.76    300.00     3.914     52.51    0.0    0.0
  JK-Pump-2               55.31           3      0.00    483.89    683.00     7.416     87.42    0.0   97.7
  XR-Pump-1              100.00           1      0.00     95.00     95.00     2.679     22.83    0.0    0.0
  XR-Pump-2               97.87           2      0.00     94.42     95.00     2.565     20.40    0.0    0.0
  XR-Pump-3               95.74           3      0.00     92.47     95.00     2.451     17.96    0.0    0.0
  XR-Pump-4               95.74           3      0.00     92.47     95.00     2.451     17.96    0.0    0.0
  
  
  ***************************
  Link Pollutant Load Summary
  ***************************
  
  ------------------------------------------------------------------------------------------
                                 COD            SS            TN            TP         NH4-N
  Link                            kg            kg            kg            kg            kg
  ------------------------------------------------------------------------------------------
  WS02003066WSF200          1018.581      1966.884        24.702         2.090        12.772
  WS02006287WS02006284       438.044       854.450        12.585         1.181         6.762
  WS02006284WS02006280       438.538       855.240        12.632         1.187         6.792
  WS02006280WS02006229       438.546       855.296        12.631         1.186         6.791
  WS02006229WS02006228      1017.620      1965.269        24.207         2.017        12.447
  WS02006256WS02006235       240.479       455.763         4.962         0.368         2.459
  WS02006253WS02006251        88.338       177.129         1.913         0.143         0.946
  WS02006252WS02006251       301.294       577.226         5.733         0.394         2.757
  WS02006251WS02006249       379.788       735.864         7.459         0.525         3.614
  WS02006249WS02006248       345.095       667.141         6.798         0.479         3.297
  WS02006248WS02006247       344.375       665.500         6.785         0.478         3.291
  WS02006247WS02006245       344.668       666.120         6.788         0.478         3.291
  WS02006245WS02006243       345.157       667.306         6.786         0.478         3.289
  WS02006243WS02006242       346.394       669.670         6.810         0.479         3.300
  WS02006242WS02006240       346.921       670.351         6.825         0.480         3.308
  WS02006240WS02006239       347.553       671.125         6.846         0.482         3.320
  WS02006239WS02006238       348.542       672.365         6.883         0.486         3.340
  WS02006238WS02006235       349.193       673.111         6.906         0.488         3.353
  WS02006235WS02006234       581.655      1114.809        11.658         0.838         5.701
  WS02006234WS02006232       581.482      1114.468        11.655         0.838         5.700
  WS02006232WS02006231       580.953      1113.483        11.643         0.837         5.694
  WS02006231WS02006230       580.868      1113.349        11.643         0.837         5.694
  WS02006230WS02006229       581.658      1114.874        11.668         0.840         5.708
  WS02006228WS02006109      1016.501      1963.244        24.164         2.013        12.422
  WS02006116WS02004401      1034.493      1996.634        25.038         2.114        12.938
  WS02006115WS02006116      1036.200      1999.837        25.081         2.118        12.960
  WS02006113WS02006111      1022.449      1972.462        24.870         2.103        12.869
  WS02006112WS02006115      1037.641      2002.486        25.128         2.123        12.987
  WS02006111WS02006112      1021.552      1970.687        24.842         2.100        12.854
  WS02006110WS02006113      1022.846      1973.067        24.890         2.105        12.881
  WS02006109WS02006110      1023.954      1974.912        24.949         2.112        12.916
  WS02004411WS02004412      1022.580      1974.227        24.827         2.102        12.840
  WS02004401WS02004402      1032.896      1993.690        24.991         2.110        12.913
  WS02004413WS02003067      1019.461      1968.548        24.720         2.091        12.781
  WS02004412WS02004413      1020.972      1971.254        24.783         2.098        12.817
  WS02004410WS02004411      1023.896      1976.671        24.860         2.104        12.857
  WS02004409WS02004410      1025.167      1979.017        24.895         2.107        12.876
  WS02004407WS02004409      1026.283      1981.104        24.918         2.109        12.888
  WS02004406WS02004407      1026.579      1981.674        24.917         2.109        12.886
  WS02004405WS02004406      1028.459      1985.069        24.983         2.115        12.923
  WS02004404WS02004405      1030.178      1988.386        24.995         2.114        12.925
  WS02004403WS02004404      1029.972      1988.283        24.912         2.103        12.871
  WS02004402WS02004403      1031.316      1990.753        24.952         2.107        12.892
  WS02004139WS02001211      1360.958      2306.504       102.098        12.316        62.512
  WS02004138WS02004139      1367.012      2316.725       102.545        12.370        62.786
  WS02003067WS02003066      1018.765      1967.220        24.709         2.091        12.776
  WS02001213WS02003059      1394.685      2359.311       105.624        12.761        64.729
  WS02001212WS02001213      1403.315      2373.753       106.296        12.843        65.142
  WS02001211WS02001212      1405.443      2377.235       106.480        12.865        65.256
  WS02003072WS02003073      2512.717      4483.663       140.306        16.105        83.757
  WS02003069WS02003072      2518.173      4492.698       140.748        16.159        84.030
  WS02003060WS02003069      2520.975      4497.667       140.891        16.175        84.114
  WS02003059WS02003060      1391.745      2354.265       105.427        12.738        64.610
  HS02004901HS02004770        19.397        38.437         0.368         0.028         0.174
  HS02004876HS02004881        64.836       131.143         1.381         0.100         0.674
  HS02004870HS02004876        49.298        99.611         1.094         0.080         0.536
  HS02004842HS02004848         9.278        18.136         0.191         0.013         0.089
  HS02004837HS02004842        13.925        25.525         0.662         0.072         0.384
  HS02004830HS02004837        81.306       145.728         4.858         0.568         2.931
  HS02004824HS02004830        82.099       147.031         4.931         0.577         2.976
  HS02004817HS02004824       118.560       221.796         5.667         0.624         3.333
  HS02004770HS02004777        73.680       147.816         1.506         0.104         0.700
  HS02004799HS02004480       235.066       460.603         5.679         0.484         2.882
  HS02004792HS02004799       214.132       417.308         5.330         0.464         2.722
  HS02004788HS02004792       116.310       227.329         3.333         0.303         1.755
  HS02004785HS02004788        75.097       150.081         1.654         0.123         0.793
  HS02004777HS02004785        74.427       149.008         1.592         0.115         0.755
  HS02004480HS02004478       294.398       579.873         6.703         0.559         3.370
  HS02004479HS02004480        62.978       125.158         1.335         0.113         0.681
  HS02004862HS02004870        37.529        74.844         0.862         0.066         0.425
  HS02004848HS02004852        15.821        31.380         0.320         0.022         0.149
  HS02004856HS02004862        25.850        52.195         0.514         0.035         0.242
  HS02004852HS02004856        15.835        31.403         0.320         0.022         0.149
  HS02004802HS02004478       144.587       276.092         5.947         0.629         3.432
  HS02004478WS02006287       438.196       854.672        12.602         1.183         6.773
  HS02004817HS02004807       117.199       219.649         5.526         0.607         3.245
  HS02004807HS02004802       144.753       276.347         5.979         0.633         3.453
  YS02001759YS02001757       397.636       753.843         7.741         0.543         3.773
  YS02001762YS02001759       244.623       461.326         4.927         0.347         2.417
  YS02001765YS02001762       246.681       466.497         4.980         0.352         2.445
  YS02001770YS02001767       253.389       482.863         4.996         0.345         2.434
  YS02001774YS02001770       492.138       960.222         9.531         0.642         4.615
  YS02001779YS02001774       491.541       959.123         9.597         0.652         4.662
  YS02001649YS02001757       487.472       908.833         9.718         0.666         4.683
  YS02001767YS02001765       249.646       473.495         5.045         0.357         2.478
  YS02006561YS02001783      1263.461      2385.340        26.061         1.924        12.898
  YS02001783YS02001784      1263.388      2385.240        26.057         1.924        12.896
  YS02001784YS02001785      1270.748      2397.042        26.770         2.013        13.342
  YS02001788YS02001790      1271.348      2398.018        26.841         2.023        13.387
  YS02001790YS02001791      1272.384      2399.690        26.941         2.035        13.450
  YS02001791YS02001793      1272.394      2399.718        26.939         2.035        13.448
  YS02001910YS02001907       565.716      1068.290        12.766         0.943         6.444
  YS02001786YS02001788      1270.949      2397.372        26.798         2.017        13.360
  YS02001915YS02001910       565.440      1067.737        12.719         0.936         6.414
  YS02001918YS02001915       279.016       506.117         6.900         0.593         3.626
  YS02001923YS02001920       253.909       463.214         4.879         0.348         2.378
  YS02001926YS02001923       250.769       457.568         4.754         0.335         2.306
  YS02001929YS02001926       248.066       452.821         4.640         0.323         2.240
  YS02001920YS02001918       274.899       497.470         6.810         0.588         3.581
  YS02001629YS02163301        89.610       159.184         1.893         0.124         0.887
  YS02001619YS02001622       259.382       485.238         5.243         0.348         2.461
  YS02001622YS02001625       258.414       483.716         5.219         0.346         2.450
  YS02001625YS02001629        86.687       153.385         1.847         0.120         0.864
  YS02163301YS02001633        94.440       168.658         1.969         0.131         0.926
  YS02163601YS02164001       529.094       976.641        10.166         0.735         4.886
  YS02164001YS02001641       528.993       976.460        10.153         0.733         4.879
  YS02001641YS02001644       530.028       978.200        10.166         0.734         4.884
  YS02001647YS02001649       648.193      1214.313        12.890         0.894         6.166
  YS02006553YS02006556       782.429      1458.240        16.628         1.259         8.329
  YS02006556YS02006558       782.584      1458.528        16.594         1.254         8.305
  YSB6556YSB1171              36.518        72.727         0.718         0.059         0.359
  YS02001907YS02006553       782.400      1458.191        16.656         1.263         8.347
  YS02006558YS02006561      1263.423      2385.257        26.060         1.924        12.897
  YS02001633YS02163601       529.695       977.590        10.143         0.730         4.868
  YS02001644YS02001647       655.752      1228.638        13.008         0.903         6.222
  YS02001745YS02001748       354.029       679.899         6.988         0.437         3.357
  YS02001748YS02001751       353.339       678.730         6.995         0.440         3.365
  YS02001751YS02001754       352.430       677.235         6.982         0.440         3.360
  YS02001754YS02001757       353.270       678.498         7.149         0.462         3.468
  YS02001882YS02001884         3.627         6.425         0.069         0.005         0.034
  YS02001884YS02001887         7.427        13.417         0.140         0.011         0.069
  YS02001890YS02001895       614.768      1175.382        11.361         0.858         5.543
  YS02001895YS02001898       614.633      1175.221        11.355         0.858         5.540
  YS02001898YS02001901       614.425      1174.843        11.350         0.857         5.537
  YS02001901YS02001904       614.367      1174.782        11.361         0.859         5.545
  YS02001904YS02001907       614.674      1175.239        11.418         0.866         5.581
  YS02001887YS02001890       669.259      1284.363        12.356         0.936         6.032
  YS02001652YS02001649       315.114       597.819         6.261         0.453         2.942
  YS02001655YS02001652       315.855       599.009         6.281         0.454         2.951
  YS02001658YS02001655       315.630       598.644         6.202         0.443         2.899
  YS02001661YS02001658       316.484       600.026         6.223         0.444         2.908
  YS02001664YS02001661       325.790       614.699         6.446         0.459         3.010
  YSB1154YSB6556              36.099        72.064         0.671         0.053         0.330
  YSB1174YSB1171              24.943        50.006         0.488         0.039         0.241
  YSB1171HS02004479           62.899       125.012         1.340         0.114         0.684
  HS02004881HS02006253        73.172       148.489         1.534         0.110         0.747
  YS02001793JiankangQianchi      1272.544      2399.978        26.925         2.033        13.438
  YS02001757CaochengTiaoxuchi       667.540      1261.525        12.997         0.893         6.268
  WSF200WS02003060          1018.276      1966.293        24.703         2.090        12.774
  1                         2519.420      4493.281       141.231        16.225        84.346
  CC-Pump-1                  188.276       360.733         3.578         0.246         1.720
  CC-Pump-2                  112.605       215.686         2.142         0.147         1.030
  JK-Pump-1                  326.085       624.744         6.569         0.483         3.237
  JK-Pump-2                  742.297      1422.191        14.949         1.098         7.366
  XR-Pump-1                  373.697       630.372        28.678         3.472        17.596
  XR-Pump-2                  346.332       586.589        26.051         3.144        15.954
  XR-Pump-3                  325.269       552.846        24.050         2.894        14.705
  XR-Pump-4                  325.269       552.846        24.050         2.894        14.705
  

  Analysis begun on:  Thu Jul 15 13:54:13 2021
  Analysis ended on:  Thu Jul 15 13:54:16 2021
  Total elapsed time: 00:00:03