
  EPA STORM WATER MANAGEMENT MODEL - VERSION 5.1 (Build 5.3.0.dev0)
  --------------------------------------------------------------

  WARNING 04: minimum elevation drop used for Conduit WS02004404WS02004405
  WARNING 03: negative offset ignored for Link YS02001904YS02001907
  
  *********************************************************
  NOTE: The summary statistics displayed in this report are
  based on results found at every computational time step,  
  not just on results from each reporting time step.
  *********************************************************
  
  ****************
  Analysis Options
  ****************
  Flow Units ............... LPS
  Process Models:
    Rainfall/Runoff ........ YES
    RDII ................... NO
    Snowmelt ............... NO
    Groundwater ............ NO
    Flow Routing ........... YES
    Ponding Allowed ........ NO
    Water Quality .......... YES
  Infiltration Method ...... HORTON
  Flow Routing Method ...... DYNWAVE
  Surcharge Method ......... EXTRAN
  Starting Date ............ 08/28/2015 08:00:00
  Ending Date .............. 08/28/2015 15:50:00
  Antecedent Dry Days ...... 8.0
  Report Time Step ......... 00:01:00
  Wet Time Step ............ 00:01:00
  Dry Time Step ............ 00:01:00
  Routing Time Step ........ 5.00 sec
  Variable Time Step ....... YES
  Maximum Trials ........... 8
  Number of Threads ........ 4
  Head Tolerance ........... 0.001500 m
  
  
  **************************        Volume         Depth
  Runoff Quantity Continuity     hectare-m            mm
  **************************     ---------       -------
  Total Precipitation ......         7.641        16.729
  Evaporation Loss .........         0.000         0.000
  Infiltration Loss ........         1.184         2.592
  Surface Runoff ...........         5.481        12.000
  Final Storage ............         0.977         2.139
  Continuity Error (%) .....        -0.016
  
  
  **************************           COD            SS            TN            TP         NH4-N
  Runoff Quality Continuity             kg            kg            kg            kg            kg
  **************************    ----------    ----------    ----------    ----------    ----------
  Initial Buildup ..........     41378.656     70582.865      1804.177       168.684      1032.807
  Surface Buildup ..........        30.344        63.217         2.449         0.220         1.402
  Wet Deposition ...........         0.000         0.000         0.000         0.000         0.000
  Sweeping Removal .........         0.000         0.000         0.000         0.000         0.000
  Infiltration Loss ........       127.934       247.015         2.452         0.174         1.174
  BMP Removal ..............         0.000         0.000         0.000         0.000         0.000
  Surface Runoff ...........      5553.100     10632.121       107.101         7.411        51.076
  Remaining Buildup ........     35725.917     59762.998      1697.031       161.316       981.940
  Continuity Error (%) .....         0.005         0.006         0.002         0.002         0.002
  
  
  **************************        Volume        Volume
  Flow Routing Continuity        hectare-m      10^6 ltr
  **************************     ---------     ---------
  Dry Weather Inflow .......         0.616         6.165
  Wet Weather Inflow .......         5.479        54.793
  Groundwater Inflow .......         0.000         0.000
  RDII Inflow ..............         0.000         0.000
  External Inflow ..........         0.102         1.024
  External Outflow .........         2.053        20.534
  Flooding Loss ............         3.682        36.816
  Evaporation Loss .........         0.000         0.000
  Exfiltration Loss ........         0.000         0.000
  Initial Stored Volume ....         0.076         0.761
  Final Stored Volume ......         0.648         6.476
  Continuity Error (%) .....        -1.729
  
  
  **************************           COD            SS            TN            TP         NH4-N
  Quality Routing Continuity            kg            kg            kg            kg            kg
  **************************    ----------    ----------    ----------    ----------    ----------
  Dry Weather Inflow .......      1541.201      2465.922       147.955        18.494        92.472
  Wet Weather Inflow .......      5552.174     10630.516       107.081         7.410        51.067
  Groundwater Inflow .......         0.000         0.000         0.000         0.000         0.000
  RDII Inflow ..............         0.000         0.000         0.000         0.000         0.000
  External Inflow ..........       183.418       293.469        17.608         2.201        11.005
  External Outflow .........      2540.210      4532.769       141.903        16.291        84.721
  Flooding Loss ............      4000.634      7556.685       101.670         8.827        53.276
  Exfiltration Loss ........         0.000         0.000         0.000         0.000         0.000
  Mass Reacted .............         0.000         0.000         0.000         0.000         0.000
  Initial Stored Mass ......         0.000         0.000         0.000         0.000         0.000
  Final Stored Mass ........       625.382      1117.533        25.664         2.685        14.724
  Continuity Error (%) .....         1.519         1.366         1.250         1.076         1.179
  
  
  *************************
  Highest Continuity Errors
  *************************
  Node HS02004842 (10.96%)
  Node JK-storage (-8.74%)
  Node YS02001884 (6.05%)
  Node HS02004817 (2.13%)
  Node YSB1171 (1.97%)
  
  
  ***************************
  Time-Step Critical Elements
  ***************************
  Link WS02006252WS02006251 (64.95%)
  Link WS02006280WS02006229 (10.97%)
  Link WS02006238WS02006235 (6.24%)
  Link YS02001793JiankangQianchi (3.68%)
  Link WS02004403WS02004404 (2.37%)
  
  
  ********************************
  Highest Flow Instability Indexes
  ********************************
  Link WS02006113WS02006111 (46)
  Link YS02163601YS02164001 (29)
  Link YS02001619YS02001622 (29)
  Link YS02163301YS02001633 (28)
  Link YS02001629YS02163301 (28)
  
  
  *************************
  Routing Time Step Summary
  *************************
  Minimum Time Step           :     0.50 sec
  Average Time Step           :     1.23 sec
  Maximum Time Step           :     5.00 sec
  Percent in Steady State     :    -0.00
  Average Iterations per Step :     3.86
  Percent Not Converging      :    13.85
  
  
  ***************************
  Subcatchment Runoff Summary
  ***************************
  
  ------------------------------------------------------------------------------------------------------------------------------
                            Total      Total      Total      Total     Imperv       Perv      Total       Total     Peak  Runoff
                           Precip      Runon       Evap      Infil     Runoff     Runoff     Runoff      Runoff   Runoff   Coeff
  Subcatchment                 mm         mm         mm         mm         mm         mm         mm    10^6 ltr      LPS
  ------------------------------------------------------------------------------------------------------------------------------
  sub0                      16.73       0.00       0.00       0.71      15.51       0.47      15.98        0.01     3.87   0.955
  sub1                      16.73       0.00       0.00       1.18      14.80       0.66      15.46        0.10    26.74   0.924
  sub2                      16.73       0.00       0.00       4.79      10.46       1.40      11.85        0.11    25.81   0.708
  sub3                      16.73       0.00       0.00       5.01      10.42       1.18      11.60        0.26    56.97   0.693
  sub4                      16.73       0.00       0.00       1.28      14.64       0.56      15.20        0.32    66.74   0.909
  sub5                      16.73       0.00       0.00       0.73      15.46       0.44      15.91        0.18    46.91   0.951
  sub7                      16.73       0.00       0.00       0.93      15.16       0.58      15.74        0.05    14.85   0.941
  sub8                      16.73       0.00       0.00       0.94      15.15       0.57      15.72        0.10    27.42   0.940
  sub9                      16.73       0.00       0.00       0.94      15.15       0.57      15.72        0.08    20.52   0.940
  sub10                     16.73       0.00       0.00       0.83      15.30       0.50      15.81        0.17    46.04   0.945
  sub11                     16.73       0.00       0.00       0.83      15.32       0.51      15.83        0.18    50.62   0.947
  sub12                     16.73       0.00       0.00       1.34      14.51       0.83      15.34        0.13    39.22   0.917
  sub14                     16.73       0.00       0.00       0.94      15.15       0.57      15.72        0.15    40.40   0.939
  sub15                     16.73       0.00       0.00       3.54      11.65       1.48      13.13        0.23    57.86   0.785
  sub16                     16.73       0.00       0.00       3.72      11.17       1.80      12.97        0.14    37.34   0.776
  sub17                     16.73       0.00       0.00       3.62      11.33       1.73      13.07        0.11    30.57   0.781
  sub22                     16.73       0.00       0.00       5.27       9.49       1.92      11.42        0.72   183.11   0.683
  sub23                     16.73       0.00       0.00       4.37      10.50       1.82      12.32        0.59   153.57   0.736
  sub60                     16.73       0.00       0.00       1.74      12.78       0.27      13.05        3.96   446.24   0.780
  sub61                     16.73       0.00       0.00       2.46      12.72       0.38      13.11        4.04   542.53   0.784
  sub62                     16.73       0.00       0.00       1.06      13.91       0.27      14.19        4.36   558.01   0.848
  sub63                     16.73       0.00       0.00       4.39      11.06       0.46      11.52        3.49   496.40   0.689
  sub64                     16.73       0.00       0.00       2.23      12.28       0.28      12.56        3.82   424.95   0.751
  sub65                     16.73       0.00       0.00       1.91      12.51       0.27      12.77        3.93   431.32   0.764
  sub66                     16.73       0.00       0.00       4.54      10.46       0.31      10.78        3.31   388.44   0.644
  sub67                     16.73       0.00       0.00       1.01      14.45       0.32      14.78        4.56   675.76   0.883
  sub68                     16.73       0.00       0.00       1.95      13.33       0.39      13.71        4.22   589.75   0.820
  sub69                     16.73       0.00       0.00       2.00      13.62       0.51      14.12        3.30   542.07   0.844
  sub70                     16.73      14.42       0.00       8.47      19.01       2.12      21.13        4.84   534.50   0.678
  sub71                     16.73       0.00       0.00       1.08      13.65       0.25      13.90        3.28   394.68   0.831
  sub72                     16.73       0.00       0.00       1.02      11.50       0.15      11.65        2.37   206.66   0.697
  1                         16.73      20.58       0.00       1.37      22.38       7.20      29.58        6.95   612.18   0.793
  2                         16.73       0.00       0.00       3.02       4.04       3.18       7.22        2.89   331.58   0.431
  
  
  ****************************
  Subcatchment Washoff Summary
  ****************************
  
  ------------------------------------------------------------------------------------------
                                 COD            SS            TN            TP         NH4-N
  Subcatchment                    kg            kg            kg            kg            kg
  ------------------------------------------------------------------------------------------
  sub0                         3.641         7.161         0.064         0.005         0.031
  sub1                        15.670        31.767         0.296         0.021         0.143
  sub2                        10.304        20.454         0.214         0.015         0.099
  sub3                        25.293        49.815         0.517         0.036         0.240
  sub4                        36.168        74.260         0.714         0.044         0.344
  sub5                        35.763        71.366         0.649         0.050         0.316
  sub7                         7.894        16.212         0.150         0.010         0.073
  sub8                        11.755        24.726         0.234         0.014         0.113
  sub9                        10.113        20.966         0.196         0.013         0.095
  sub10                       29.347        59.341         0.545         0.040         0.265
  sub11                       28.395        58.052         0.536         0.037         0.260
  sub12                       24.463        49.072         0.450         0.034         0.218
  sub14                       21.697        44.543         0.414         0.028         0.200
  sub15                       29.696        58.821         0.572         0.042         0.270
  sub16                       19.246        38.050         0.367         0.028         0.174
  sub17                       17.687        34.653         0.330         0.026         0.156
  sub22                       95.915       186.896         1.820         0.139         0.857
  sub23                       54.382       109.539         1.141         0.076         0.527
  sub60                      353.947       679.509         6.988         0.437         3.357
  sub61                      439.695       840.113         8.188         0.570         3.952
  sub62                      449.790       873.119         8.744         0.564         4.209
  sub63                      328.186       618.356         6.505         0.463         3.037
  sub64                      450.924       835.563         8.299         0.611         3.976
  sub65                      460.537       856.688         8.527         0.617         4.090
  sub66                      259.427       485.147         5.248         0.348         2.463
  sub67                      667.181      1281.068        12.075         0.900         5.853
  sub68                      479.473       924.467         9.153         0.628         4.389
  sub69                      429.286       835.450         8.068         0.576         3.873
  sub70                      758.301      1478.311        15.194         1.074         7.173
  sub71                      296.268       580.620         6.027         0.356         2.890
  sub72                      247.759       452.374         4.612         0.320         2.223
  1                          576.917      1130.968        11.723         0.829         5.484
  2                           65.566       118.435         1.802         0.109         0.773
  ------------------------------------------------------------------------------------------
  System                    6740.687     12945.882       130.363         9.060        62.122
  
  
  ******************
  Node Depth Summary
  ******************
  
  ---------------------------------------------------------------------------------
                                 Average  Maximum  Maximum  Time of Max    Reported
                                   Depth    Depth      HGL   Occurrence   Max Depth
  Node                 Type       Meters   Meters   Meters  days hr:min      Meters
  ---------------------------------------------------------------------------------
  WS02001211           JUNCTION     0.78     0.85     5.69     0  02:04        0.85
  WS02001212           JUNCTION     0.49     0.58     5.64     0  02:03        0.58
  WS02001213           JUNCTION     0.73     0.86     5.62     0  02:03        0.86
  WS02003069           JUNCTION     0.52     0.72     5.31     0  02:03        0.72
  WS02003072           JUNCTION     0.58     0.76     5.14     0  02:03        0.76
  WS02003073           JUNCTION     0.36     0.48     4.55     0  02:04        0.48
  WS02003060           JUNCTION     0.46     0.64     5.57     0  02:02        0.64
  WS02003066           JUNCTION     0.25     0.39     5.94     0  01:57        0.39
  WS02003059           JUNCTION     0.78     0.91     5.60     0  02:02        0.91
  WS02003067           JUNCTION     0.59     0.83     6.15     0  01:57        0.83
  WS02004401           JUNCTION     0.73     1.30     7.30     0  01:54        1.29
  WS02004402           JUNCTION     0.75     1.29     7.25     0  01:54        1.28
  WS02004403           JUNCTION     0.77     1.26     7.19     0  01:54        1.25
  WS02004404           JUNCTION     0.84     1.30     7.15     0  01:54        1.30
  WS02004406           JUNCTION     0.84     1.20     7.03     0  01:54        1.20
  WS02004409           JUNCTION     0.54     0.98     6.75     0  01:57        0.98
  WS02004410           JUNCTION     0.55     0.96     6.68     0  01:57        0.96
  WS02004411           JUNCTION     0.56     0.94     6.62     0  01:57        0.94
  WS02004412           JUNCTION     0.58     0.91     6.55     0  01:57        0.91
  WS02004413           JUNCTION     0.73     1.03     6.50     0  01:57        1.03
  WS02004405           JUNCTION     0.83     1.27     7.12     0  01:54        1.27
  WS02006109           JUNCTION     0.83     1.75     8.37     0  01:55        1.74
  WS02006110           JUNCTION     0.80     1.54     8.12     0  01:55        1.51
  WS02006111           JUNCTION     0.27     0.98     7.68     0  01:54        0.92
  WS02006112           JUNCTION     0.91     1.64     7.52     0  01:54        1.58
  WS02006113           JUNCTION     0.38     1.02     7.91     0  01:55        0.97
  WS02006115           JUNCTION     0.63     1.30     7.44     0  01:54        1.26
  WS02006116           JUNCTION     0.71     1.33     7.37     0  01:54        1.30
  WS02006230           JUNCTION     0.84     1.97     8.72     0  01:55        1.97
  WS02006231           JUNCTION     0.60     1.61     8.73     0  01:56        1.60
  WS02006232           JUNCTION     0.73     1.70     8.74     0  01:55        1.68
  WS02006234           JUNCTION     0.67     1.59     8.74     0  01:55        1.57
  WS02006235           JUNCTION     0.71     1.59     8.75     0  01:55        1.58
  WS02006238           JUNCTION     0.73     1.61     8.76     0  01:55        1.58
  WS02006240           JUNCTION     0.63     1.44     8.73     0  01:55        1.43
  WS02006242           JUNCTION     0.68     1.45     8.72     0  01:55        1.45
  WS02006243           JUNCTION     0.56     1.29     8.71     0  01:55        1.28
  WS02006245           JUNCTION     0.53     1.22     8.71     0  01:55        1.21
  WS02006247           JUNCTION     0.54     1.22     8.72     0  06:42        1.19
  WS02006248           JUNCTION     0.48     1.10     8.69     0  01:54        1.10
  WS02006249           JUNCTION     0.50     1.09     8.69     0  01:54        1.09
  WS02006239           JUNCTION     0.69     1.53     8.74     0  01:55        1.52
  WS02006251           JUNCTION     0.48     1.35     9.02     0  01:54        1.15
  WS02006252           JUNCTION     0.31     0.81     9.05     0  03:07        0.70
  WS02006253           JUNCTION     0.50     1.79     9.44     0  03:07        1.18
  WS02006256           JUNCTION     1.69     2.35     9.28     0  01:28        2.35
  WS02004138           JUNCTION     0.19     0.20     7.45     0  00:00        0.19
  WS02004139           JUNCTION     0.72     0.79     5.70     0  02:03        0.79
  WS02004407           JUNCTION     0.24     0.40     6.72     0  01:56        0.40
  WS02006228           JUNCTION     0.85     1.94     8.59     0  01:55        1.92
  WS02006229           JUNCTION     0.84     2.01     8.71     0  01:55        2.01
  WS02006280           JUNCTION     0.08     0.34     8.61     0  01:54        0.33
  WS02006284           JUNCTION     0.38     0.66     9.06     0  01:54        0.66
  WS02006287           JUNCTION     0.11     0.40     9.36     0  01:54        0.40
  WSF200               JUNCTION     0.24     0.44     5.67     0  01:57        0.44
  HS02004901           JUNCTION     0.14     0.38    10.21     0  01:53        0.38
  HS02004881           JUNCTION     0.01     0.06     9.08     0  01:54        0.05
  HS02004876           JUNCTION     0.05     0.17     9.20     0  01:54        0.17
  HS02004870           JUNCTION     0.02     0.10     9.38     0  01:54        0.10
  HS02004862           JUNCTION     0.02     0.11     9.50     0  01:55        0.11
  HS02004856           JUNCTION     0.08     0.15     9.58     0  01:54        0.15
  HS02004852           JUNCTION     0.01     0.08     9.59     0  01:55        0.08
  HS02004848           JUNCTION     0.01     0.07     9.67     0  01:54        0.07
  HS02004842           JUNCTION     0.34     0.40     9.67     0  01:54        0.40
  HS02004837           JUNCTION     0.03     0.09     9.67     0  01:54        0.09
  HS02004830           JUNCTION     0.04     0.11     9.58     0  01:55        0.11
  HS02004824           JUNCTION     0.03     0.15     9.55     0  01:54        0.15
  HS02004817           JUNCTION     0.46     0.71     9.56     0  01:54        0.71
  HS02004807           JUNCTION     0.14     0.38     9.55     0  01:55        0.38
  HS02004802           JUNCTION     0.18     0.41     9.54     0  01:55        0.41
  HS02004799           JUNCTION     0.14     0.48     9.69     0  01:53        0.48
  HS02004792           JUNCTION     0.04     0.22     9.75     0  01:53        0.22
  HS02004788           JUNCTION     0.03     0.16    10.06     0  01:54        0.16
  HS02004785           JUNCTION     0.06     0.25    10.15     0  01:53        0.25
  HS02004777           JUNCTION     0.16     0.40    10.20     0  01:53        0.40
  HS02004770           JUNCTION     0.13     0.37    10.21     0  01:53        0.37
  HS02004480           JUNCTION     0.10     0.39     9.64     0  01:53        0.39
  HS02004479           JUNCTION     0.13     0.43     9.64     0  01:53        0.43
  HS02004478           JUNCTION     0.07     0.29     9.52     0  01:54        0.29
  YS02001745           JUNCTION     0.79     0.96     8.47     0  03:01        0.96
  YS02001748           JUNCTION     1.20     1.45     8.53     0  01:47        1.39
  YS02001751           JUNCTION     1.38     1.59     8.47     0  03:03        1.58
  YS02001754           JUNCTION     1.64     1.85     8.46     0  03:03        1.84
  YS02001762           JUNCTION     1.84     2.04     8.44     0  03:03        2.04
  YS02001765           JUNCTION     1.79     1.99     8.44     0  03:03        1.98
  YS02001767           JUNCTION     1.75     1.95     8.44     0  03:06        1.94
  YS02001770           JUNCTION     1.75     1.93     8.42     0  03:03        1.93
  YS02001774           JUNCTION     1.81     1.99     8.41     0  03:04        1.98
  YS02001779           JUNCTION     1.55     1.68     8.37     0  01:51        1.68
  YS02001882           JUNCTION     0.68     1.67     8.39     0  01:50        1.63
  YS02001884           JUNCTION     0.78     1.76     8.37     0  01:50        1.73
  YS02001759           JUNCTION     1.87     2.09     8.45     0  03:03        2.08
  YS02001887           JUNCTION     0.86     1.82     8.36     0  01:50        1.81
  YS02001890           JUNCTION     0.89     1.81     8.32     0  01:50        1.81
  YS02001898           JUNCTION     0.65     1.57     8.30     0  01:51        1.56
  YS02001901           JUNCTION     0.77     1.68     8.29     0  01:51        1.68
  YS02001904           JUNCTION     0.75     1.64     8.27     0  01:51        1.63
  YS02001907           JUNCTION     1.08     1.96     8.25     0  01:51        1.96
  YS02001910           JUNCTION     0.87     1.86     8.37     0  01:51        1.80
  YS02001915           JUNCTION     0.67     1.73     8.44     0  01:51        1.62
  YS02001918           JUNCTION     0.41     1.54     8.60     0  01:51        1.35
  YS02001619           JUNCTION     1.34     1.56     8.49     0  01:45        1.48
  YS02001629           JUNCTION     1.69     1.85     8.40     0  01:47        1.84
  YS02001641           JUNCTION     1.79     1.93     8.37     0  01:56        1.93
  YS02001644           JUNCTION     1.79     1.92     8.35     0  01:48        1.92
  YS02001652           JUNCTION     1.65     2.03     8.63     0  04:00        1.90
  YS02001655           JUNCTION     1.41     1.94     8.79     0  04:00        1.69
  YS02001920           JUNCTION     0.51     1.69     8.69     0  01:51        1.44
  YS02001923           JUNCTION     0.33     1.51     8.77     0  01:51        1.23
  YS02001926           JUNCTION     0.37     1.55     8.99     0  01:51        1.13
  YS02001929           JUNCTION     0.23     0.99     8.68     0  01:52        0.98
  YS02001658           JUNCTION     1.14     1.82     8.96     0  04:00        1.43
  YS02001661           JUNCTION     0.90     1.83     9.23     0  03:59        1.19
  YS02001664           JUNCTION     0.41     0.57     8.49     0  01:52        0.56
  YS02001622           JUNCTION     1.36     1.56     8.46     0  01:45        1.50
  YS02001633           JUNCTION     1.79     1.95     8.40     0  01:48        1.94
  YS02001649           JUNCTION     1.85     2.05     8.44     0  03:57        2.05
  YS02001757           JUNCTION     1.97     2.19     8.45     0  03:04        2.18
  YS02001895           JUNCTION     0.65     1.57     8.31     0  02:12        1.56
  YS02001625           JUNCTION     1.65     1.78     8.38     0  01:45        1.78
  YS02163301           JUNCTION     1.72     1.88     8.40     0  02:13        1.88
  YS02163601           JUNCTION     1.84     1.99     8.39     0  01:48        1.98
  YS02164001           JUNCTION     1.77     1.92     8.38     0  06:52        1.91
  YS02001647           JUNCTION     1.63     1.80     8.41     0  03:59        1.79
  YSB1154              JUNCTION     0.28     0.58     9.64     0  01:53        0.58
  YSB6556              JUNCTION     0.17     0.47     9.64     0  01:53        0.47
  YSB1174              JUNCTION     0.23     0.53     9.64     0  01:53        0.53
  YSB1171              JUNCTION     0.43     0.74     9.64     0  01:53        0.74
  YS02006553           JUNCTION     1.08     1.97     8.26     0  02:14        1.97
  YS02006561           JUNCTION     0.40     1.11     7.77     0  01:51        1.08
  YS02006556           JUNCTION     1.04     1.93     8.24     0  02:09        1.93
  YS02006558           JUNCTION     1.08     1.98     8.25     0  02:15        1.97
  YS02001783           JUNCTION     0.65     1.67     7.81     0  01:44        1.48
  YS02001784           JUNCTION     0.66     1.52     7.58     0  01:44        1.42
  YS02001786           JUNCTION     0.59     1.48     7.51     0  01:44        1.26
  YS02001788           JUNCTION     0.52     1.38     7.35     0  01:44        1.13
  YS02001790           JUNCTION     0.65     1.96     7.60     0  01:44        1.29
  YS02001791           JUNCTION     0.62     1.90     7.37     0  01:44        1.27
  YS02001793           JUNCTION     0.89     2.32     7.15     0  01:43        1.80
  WSC                  OUTFALL      0.36     0.48     1.15     0  02:05        0.48
  JK-storage           STORAGE      3.49     5.80     6.60     0  01:44        5.80
  CC-storage           STORAGE      1.22     1.44     8.44     0  03:02        1.44
  XR-storage           STORAGE      7.09     7.72     5.72     0  02:09        7.72
  
  
  *******************
  Node Inflow Summary
  *******************
  
  -------------------------------------------------------------------------------------------------
                                  Maximum  Maximum                  Lateral       Total        Flow
                                  Lateral    Total  Time of Max      Inflow      Inflow     Balance
                                   Inflow   Inflow   Occurrence      Volume      Volume       Error
  Node                 Type           LPS      LPS  days hr:min    10^6 ltr    10^6 ltr     Percent
  -------------------------------------------------------------------------------------------------
  WS02001211           JUNCTION      7.35   389.43     0  04:29       0.207        10.4       0.383
  WS02001212           JUNCTION      0.00   391.40     0  04:29           0        10.3       0.229
  WS02001213           JUNCTION      0.00   393.35     0  04:30           0        10.3       0.264
  WS02003069           JUNCTION      0.32  1340.45     0  02:03     0.00902        20.6       0.146
  WS02003072           JUNCTION      0.00  1340.40     0  02:03           0        20.6       0.181
  WS02003073           JUNCTION      1.82  1342.44     0  02:04      0.0514        20.6       0.206
  WS02003060           JUNCTION     16.53  1339.88     0  02:02       0.466        20.6       0.138
  WS02003066           JUNCTION      0.00   955.42     0  01:57           0        9.91       0.035
  WS02003059           JUNCTION      0.00   396.66     0  04:30           0        10.3       0.378
  WS02003067           JUNCTION      0.00   954.95     0  01:58           0        9.92       0.074
  WS02004401           JUNCTION      0.00   967.24     0  01:56           0        10.1       0.153
  WS02004402           JUNCTION      0.00   968.29     0  01:56           0        10.1       0.148
  WS02004403           JUNCTION      0.00   968.52     0  01:56           0        10.1       0.140
  WS02004404           JUNCTION      0.16   968.88     0  01:56     0.00457        10.1       0.107
  WS02004406           JUNCTION      0.00   969.73     0  01:56           0          10       0.265
  WS02004409           JUNCTION      0.00   968.05     0  01:56           0          10       0.105
  WS02004410           JUNCTION      0.00   956.84     0  01:56           0        9.99       0.128
  WS02004411           JUNCTION      0.00   953.68     0  01:57           0        9.97       0.137
  WS02004412           JUNCTION      0.00   954.87     0  01:57           0        9.96       0.156
  WS02004413           JUNCTION      0.00   955.04     0  01:58           0        9.94       0.248
  WS02004405           JUNCTION      0.04   969.15     0  01:56     0.00107          10       0.168
  WS02006109           JUNCTION      1.23   938.00     0  01:56      0.0347        10.1       0.108
  WS02006110           JUNCTION      0.00   937.61     0  01:56           0          10       0.127
  WS02006111           JUNCTION      0.00   937.39     0  01:56           0          10       0.013
  WS02006112           JUNCTION     30.57   966.80     0  01:56       0.112        10.1       0.193
  WS02006113           JUNCTION      0.00   937.82     0  01:56           0          10       0.048
  WS02006115           JUNCTION      0.00   966.42     0  01:56           0        10.1       0.142
  WS02006116           JUNCTION      0.00   967.93     0  01:56           0        10.1       0.087
  WS02006230           JUNCTION     10.28   525.95     0  03:53        0.29        6.93       0.104
  WS02006231           JUNCTION      0.00   515.73     0  03:52           0        6.64      -0.002
  WS02006232           JUNCTION      0.00   515.78     0  03:53           0        6.65       0.097
  WS02006234           JUNCTION      0.00   516.17     0  03:53           0        6.65       0.010
  WS02006235           JUNCTION      0.00   516.61     0  03:54           0         6.7       0.055
  WS02006238           JUNCTION      0.00   331.74     0  06:03           0         3.3      -0.138
  WS02006240           JUNCTION      0.00   343.25     0  06:02           0        3.25       0.011
  WS02006242           JUNCTION      0.00   352.02     0  06:02           0        3.24       0.053
  WS02006243           JUNCTION      0.00   361.05     0  06:01           0        3.24       0.079
  WS02006245           JUNCTION      0.00   366.41     0  06:01           0        3.24       0.175
  WS02006247           JUNCTION      0.00   370.82     0  06:01           0        3.24       0.021
  WS02006248           JUNCTION      0.00   375.69     0  06:01           0        3.24      -0.080
  WS02006249           JUNCTION      0.00   465.33     0  02:30           0        3.63       0.095
  WS02006239           JUNCTION      0.00   334.95     0  06:03           0        3.27      -0.119
  WS02006251           JUNCTION      0.08   464.26     0  02:30     0.00217        3.66      -0.034
  WS02006252           JUNCTION      0.00   400.00     0  03:10           0           3      -0.000
  WS02006253           JUNCTION      3.87   174.68     0  01:53      0.0129       0.657      -0.157
  WS02006256           JUNCTION      0.00   983.00     0  02:00           0        11.3       0.015
  WS02004138           JUNCTION      0.00   380.00     0  00:00           0        10.2       0.067
  WS02004139           JUNCTION      0.32   394.45     0  00:00     0.00905        10.2       0.440
  WS02004407           JUNCTION      0.00   969.79     0  01:56           0          10       0.044
  WS02006228           JUNCTION      0.00   936.59     0  01:56           0          10       0.072
  WS02006229           JUNCTION      0.00   987.48     0  01:55           0          10       0.076
  WS02006280           JUNCTION      0.00   736.05     0  01:54           0        3.11       0.014
  WS02006284           JUNCTION      0.10   735.79     0  01:54      0.0027        3.11       0.019
  WS02006287           JUNCTION      0.00   735.62     0  01:54           0        3.11       0.023
  WSF200               JUNCTION      0.00   955.95     0  01:58           0        9.91       0.031
  HS02004901           JUNCTION     37.34    37.34     0  01:51       0.136       0.136       1.312
  HS02004881           JUNCTION     14.85   153.29     0  01:54       0.053       0.601       0.105
  HS02004876           JUNCTION     26.74   139.06     0  01:54       0.103       0.549       0.099
  HS02004870           JUNCTION     27.42   112.65     0  01:54         0.1       0.446       0.025
  HS02004862           JUNCTION     26.01    86.18     0  01:54       0.116       0.346       0.050
  HS02004856           JUNCTION     20.52    60.23     0  01:54      0.0756       0.231       0.629
  HS02004852           JUNCTION      0.00    40.37     0  01:54           0       0.155       0.036
  HS02004848           JUNCTION     56.97    56.97     0  01:56       0.261       0.261       0.019
  HS02004842           JUNCTION      0.00    18.18     0  02:06           0       0.119      12.306
  HS02004837           JUNCTION     52.39    67.88     0  01:54       0.353       0.459       0.177
  HS02004830           JUNCTION      0.15    67.98     0  01:54     0.00423       0.449       0.275
  HS02004824           JUNCTION     66.79   134.68     0  01:56       0.318       0.767       0.071
  HS02004817           JUNCTION      0.60   137.10     0  01:57      0.0169       0.783       2.175
  HS02004807           JUNCTION     50.62   184.37     0  01:55       0.184       0.952       0.461
  HS02004802           JUNCTION      0.00   183.91     0  01:56           0        0.95       0.414
  HS02004799           JUNCTION     40.40   470.74     0  01:53        0.15        1.87       0.160
  HS02004792           JUNCTION    183.39   430.97     0  01:53       0.729        1.72       0.024
  HS02004788           JUNCTION     59.53   248.79     0  01:53       0.273       0.991       0.039
  HS02004785           JUNCTION      0.15   189.56     0  01:53     0.00423        0.72       0.070
  HS02004777           JUNCTION      0.03   189.71     0  01:52    0.000846        0.72       0.728
  HS02004770           JUNCTION    153.57   190.36     0  01:52       0.587       0.722       0.429
  HS02004480           JUNCTION      0.00   554.32     0  01:53           0        2.18       0.043
  HS02004479           JUNCTION      0.00    83.75     0  01:53           0       0.323       0.229
  HS02004478           JUNCTION      0.00   735.58     0  01:54           0        3.11       0.010
  YS02001745           JUNCTION    446.25   446.25     0  02:16        3.95        3.95       0.292
  YS02001748           JUNCTION      0.04   450.06     0  02:16     0.00127        3.94       0.584
  YS02001751           JUNCTION      0.01   450.61     0  02:16     0.00031        3.92       0.614
  YS02001754           JUNCTION      0.26   450.28     0  02:16     0.00733        3.91       0.634
  YS02001762           JUNCTION      0.00   434.02     0  01:55           0        2.21       0.963
  YS02001765           JUNCTION      0.00   434.08     0  01:55           0        2.21       1.117
  YS02001767           JUNCTION      0.54   434.90     0  01:55      0.0151        2.24       1.616
  YS02001770           JUNCTION    558.16   714.03     0  03:01        4.36        5.26       0.602
  YS02001774           JUNCTION      0.00   714.17     0  03:01           0         3.9       0.640
  YS02001779           JUNCTION      0.01   714.25     0  03:01    0.000141        3.87       0.405
  YS02001882           JUNCTION      0.00    59.34     0  01:48           0      0.0567       3.779
  YS02001884           JUNCTION      0.00    66.74     0  01:46           0      0.0992       6.440
  YS02001759           JUNCTION    542.57   879.83     0  01:57        4.04        5.33       0.434
  YS02001887           JUNCTION    676.21   677.21     0  02:14        4.57        4.61       0.187
  YS02001890           JUNCTION      0.00   677.30     0  02:12           0        4.56       0.199
  YS02001898           JUNCTION      0.00   520.25     0  01:51           0        4.28       0.072
  YS02001901           JUNCTION      0.00   520.98     0  01:51           0        4.28       0.155
  YS02001904           JUNCTION      0.00   520.65     0  01:51           0        4.27       0.132
  YS02001907           JUNCTION      0.00  1171.40     0  01:52           0        9.99       0.242
  YS02001910           JUNCTION      0.00   656.26     0  01:52           0        5.74       0.219
  YS02001915           JUNCTION    394.70   655.91     0  01:52        3.28        5.79       0.092
  YS02001918           JUNCTION      0.00   374.59     0  01:52           0        2.54       0.053
  YS02001619           JUNCTION    388.44   388.44     0  02:16         3.3         3.3       0.370
  YS02001629           JUNCTION      0.00   217.55     0  01:48           0        1.43       2.042
  YS02001641           JUNCTION      0.00   454.26     0  01:48           0        5.09       0.413
  YS02001644           JUNCTION    424.99  1560.02     0  03:01        3.82        14.6       0.186
  YS02001652           JUNCTION      0.00   519.89     0  02:11           0        3.44       0.677
  YS02001655           JUNCTION      0.15   518.48     0  02:11     0.00434        3.46       0.730
  YS02001920           JUNCTION      2.87   374.46     0  01:52      0.0809        2.52       0.121
  YS02001923           JUNCTION      0.04   310.97     0  01:53     0.00106        2.42       0.051
  YS02001926           JUNCTION      0.05   344.69     0  01:50     0.00147        2.39       0.122
  YS02001929           JUNCTION    206.66   206.66     0  03:01        2.37        2.38       0.026
  YS02001658           JUNCTION      0.00   523.55     0  02:02           0        3.48       0.700
  YS02001661           JUNCTION      0.00   763.88     0  01:52           0        3.79      -0.013
  YS02001664           JUNCTION    496.40   496.40     0  02:16        3.49        3.79       0.170
  YS02001622           JUNCTION      0.00   389.12     0  02:16           0        3.29       0.974
  YS02001633           JUNCTION    431.52   455.95     0  01:48        3.93        5.24       0.612
  YS02001649           JUNCTION      0.00  1002.20     0  01:52           0        7.53       0.494
  YS02001757           JUNCTION      0.00  2145.84     0  01:56           0        10.2       0.900
  YS02001895           JUNCTION      0.00   519.69     0  01:51           0        4.27       0.118
  YS02001625           JUNCTION      0.00   434.91     0  02:16           0        3.34       1.183
  YS02163301           JUNCTION      0.00   222.01     0  01:45           0        1.42       1.710
  YS02163601           JUNCTION      0.11   455.75     0  01:48      0.0031        5.11       0.588
  YS02164001           JUNCTION      0.00   455.40     0  01:48           0        5.09       0.394
  YS02001647           JUNCTION      0.00   800.89     0  03:01           0        6.73       0.421
  YSB1154              JUNCTION     46.91    46.91     0  01:52        0.18       0.181       0.806
  YSB6556              JUNCTION      0.00    46.63     0  01:53           0       0.182       0.695
  YSB1174              JUNCTION     39.22    39.22     0  01:50       0.134       0.134       0.963
  YSB1171              JUNCTION      0.00    84.03     0  01:52           0       0.322       2.011
  YS02006553           JUNCTION      0.00   718.46     0  03:35           0        7.29       0.213
  YS02006561           JUNCTION      0.00   982.47     0  02:10           0        11.5       0.007
  YS02006556           JUNCTION      0.00   718.54     0  03:35           0        7.29       0.152
  YS02006558           JUNCTION    590.63   983.83     0  02:11        4.24        11.5       0.042
  YS02001783           JUNCTION      0.00   982.68     0  02:14           0        11.5       0.020
  YS02001784           JUNCTION      1.06   983.56     0  02:14      0.0299        11.5       0.031
  YS02001786           JUNCTION      0.06   983.53     0  02:10     0.00159        11.5       0.030
  YS02001788           JUNCTION      0.07   983.77     0  02:10       0.002        11.5       0.018
  YS02001790           JUNCTION      0.15   983.88     0  02:10     0.00437        11.5       0.012
  YS02001791           JUNCTION      0.00   984.05     0  02:10           0        11.5       0.009
  YS02001793           JUNCTION      0.00   984.18     0  02:10           0        11.5      -0.032
  WSC                  OUTFALL       0.00  1342.70     0  02:05           0        20.5       0.000
  JK-storage           STORAGE       0.00   984.56     0  02:13           0        11.6      -8.037
  CC-storage           STORAGE       0.00  2148.31     0  01:55           0           7       0.940
  XR-storage           STORAGE    1054.62  1054.62     0  03:01        15.5        16.1      -0.001
  
  
  **********************
  Node Surcharge Summary
  **********************
  
  Surcharging occurs when water rises above the top of the highest conduit.
  ---------------------------------------------------------------------
                                               Max. Height   Min. Depth
                                   Hours       Above Crown    Below Rim
  Node                 Type      Surcharged         Meters       Meters
  ---------------------------------------------------------------------
  WS02004401           JUNCTION        1.07          0.298        1.362
  WS02004402           JUNCTION        1.12          0.286        1.454
  WS02004403           JUNCTION        1.13          0.263        1.767
  WS02004404           JUNCTION        1.68          0.301        2.479
  WS02004406           JUNCTION        1.50          0.198        2.252
  WS02004413           JUNCTION        0.42          0.031        2.169
  WS02004405           JUNCTION        1.64          0.270        2.530
  WS02006109           JUNCTION        3.04          0.929        0.891
  WS02006110           JUNCTION        2.09          0.630        1.220
  WS02006111           JUNCTION        0.30          0.168        1.702
  WS02006112           JUNCTION        2.23          0.637        1.043
  WS02006113           JUNCTION        0.34          0.216        1.714
  WS02006115           JUNCTION        0.72          0.287        1.963
  WS02006116           JUNCTION        0.78          0.274        2.016
  WS02006230           JUNCTION        1.81          0.894        0.676
  WS02006231           JUNCTION        1.98          0.895        0.635
  WS02006232           JUNCTION        2.96          1.002        0.478
  WS02006234           JUNCTION        2.47          0.867        0.373
  WS02006235           JUNCTION        2.60          0.881        0.409
  WS02006238           JUNCTION        2.64          0.891        0.539
  WS02006240           JUNCTION        2.32          0.727        0.663
  WS02006242           JUNCTION        2.36          0.724        0.096
  WS02006243           JUNCTION        1.97          0.581        0.189
  WS02006245           JUNCTION        1.80          0.511        0.339
  WS02006247           JUNCTION        1.80          0.506        0.254
  WS02006248           JUNCTION        1.63          0.380        0.000
  WS02006249           JUNCTION        1.66          0.390        0.000
  WS02006239           JUNCTION        2.42          0.794        0.496
  WS02006251           JUNCTION        0.92          0.320        0.860
  WS02006252           JUNCTION        1.96          0.412        0.688
  WS02006253           JUNCTION        1.15          0.754        1.726
  WS02006256           JUNCTION        6.48          2.050        0.000
  WS02006228           JUNCTION        3.04          1.106        1.094
  HS02004817           JUNCTION        0.14          0.011        1.729
  YS02001748           JUNCTION        6.04          0.368        0.822
  YS02001751           JUNCTION        6.08          0.587        0.613
  YS02001754           JUNCTION        6.14          0.802        0.348
  YS02001762           JUNCTION        6.19          1.044        0.106
  YS02001765           JUNCTION        6.18          0.993        0.107
  YS02001767           JUNCTION        6.18          0.948        0.082
  YS02001770           JUNCTION        6.18          0.899        0.021
  YS02001774           JUNCTION        6.19          0.986        0.064
  YS02001779           JUNCTION        6.13          0.680        0.000
  YS02001882           JUNCTION        1.81          0.672        0.158
  YS02001884           JUNCTION        1.82          0.698        0.172
  YS02001759           JUNCTION        6.20          1.086        0.124
  YS02001887           JUNCTION        1.88          0.767        0.183
  YS02001890           JUNCTION        1.90          0.760        0.000
  YS02001898           JUNCTION        1.78          0.539        0.201
  YS02001901           JUNCTION        1.85          0.681        0.189
  YS02001904           JUNCTION        1.84          0.638        0.212
  YS02001907           JUNCTION        2.39          0.950        0.000
  YS02001910           JUNCTION        1.93          0.864        0.236
  YS02001915           JUNCTION        1.80          0.727        0.273
  YS02001918           JUNCTION        1.65          0.536        0.274
  YS02001619           JUNCTION        6.09          0.561        0.049
  YS02001629           JUNCTION        6.08          0.470        0.000
  YS02001641           JUNCTION        6.18          0.934        0.166
  YS02001644           JUNCTION        6.18          0.920        0.000
  YS02001652           JUNCTION        6.15          1.000        0.130
  YS02001655           JUNCTION        6.10          0.935        0.265
  YS02001920           JUNCTION        1.68          0.687        0.453
  YS02001923           JUNCTION        0.01          0.295        0.525
  YS02001926           JUNCTION        0.01          0.547        0.353
  YS02001658           JUNCTION        6.05          0.818        0.482
  YS02001661           JUNCTION        0.10          0.758        0.632
  YS02001622           JUNCTION        6.10          0.559        0.061
  YS02001633           JUNCTION        6.17          0.929        0.131
  YS02001649           JUNCTION        6.19          1.050        0.000
  YS02001757           JUNCTION        6.23          1.186        0.024
  YS02001895           JUNCTION        1.79          0.567        0.183
  YS02001625           JUNCTION        6.15          0.780        0.000
  YS02163301           JUNCTION        6.17          0.884        0.146
  YS02163601           JUNCTION        6.20          0.988        0.092
  YS02164001           JUNCTION        6.17          0.921        0.179
  YS02001647           JUNCTION        6.15          0.799        0.101
  YS02006553           JUNCTION        2.45          0.971        0.219
  YS02006561           JUNCTION        1.69          0.311        0.839
  YS02006556           JUNCTION        2.10          0.894        0.456
  YS02006558           JUNCTION        2.07          0.880        0.520
  YS02001783           JUNCTION        1.94          0.869        0.731
  YS02001784           JUNCTION        1.92          0.716        0.774
  YS02001786           JUNCTION        1.87          0.676        0.754
  YS02001788           JUNCTION        1.81          0.577        0.903
  YS02001790           JUNCTION        2.78          1.157        0.000
  YS02001791           JUNCTION        2.86          1.096        0.824
  YS02001793           JUNCTION        3.10          1.322        1.278
  
  
  *********************
  Node Flooding Summary
  *********************
  
  Flooding refers to all water that overflows a node, whether it ponds or not.
  --------------------------------------------------------------------------
                                                             Total   Maximum
                                 Maximum   Time of Max       Flood    Ponded
                        Hours       Rate    Occurrence      Volume     Depth
  Node                 Flooded       LPS   days hr:min    10^6 ltr    Meters
  --------------------------------------------------------------------------
  WS02006248              0.17     57.11      0  01:56       0.013     0.000
  WS02006249              1.10    220.39      0  02:30       0.383     0.000
  WS02006256              4.07    829.10      0  02:00       7.894     0.000
  YS02001779              3.86    714.24      0  03:01       3.853     0.000
  YS02001890              0.81    161.02      0  02:13       0.273     0.000
  YS02001907              1.53    714.76      0  02:16       2.681     0.000
  YS02001629              0.01      1.92      0  01:47       0.000     0.000
  YS02001644              5.90   1560.02      0  03:01      13.492     0.000
  YS02001649              0.01     24.90      0  04:00       0.000     0.000
  YS02001625              2.16    434.90      0  02:16       1.967     0.000
  YS02001790              0.01    220.49      0  01:44       0.000     0.000
  JK-storage              0.99    854.68      0  01:50       1.219     0.000
  XR-storage              4.64    674.57      0  03:01       5.041     0.000
  
  
  **********************
  Storage Volume Summary
  **********************
  
  --------------------------------------------------------------------------------------------------
                         Average     Avg  Evap Exfil       Maximum     Max    Time of Max    Maximum
                          Volume    Pcnt  Pcnt  Pcnt        Volume    Pcnt     Occurrence    Outflow
  Storage Unit           1000 m3    Full  Loss  Loss       1000 m3    Full    days hr:min        LPS
  --------------------------------------------------------------------------------------------------
  JK-storage               0.175      60     0     0         0.291     100       0  01:44     983.00
  CC-storage               3.399      22     0     0         4.025      26       0  03:02     400.00
  XR-storage               0.851      92     0     0         0.926     100       0  02:09     380.00
  
  
  ***********************
  Outfall Loading Summary
  ***********************
  
  ---------------------------------------------------------------------------------------------------------------------------------
                         Flow       Avg       Max       Total         Total         Total         Total         Total         Total
                         Freq      Flow      Flow      Volume           COD            SS            TN            TP         NH4-N
  Outfall Node           Pcnt       LPS       LPS    10^6 ltr            kg            kg            kg            kg            kg
  ---------------------------------------------------------------------------------------------------------------------------------
  WSC                  100.00    794.69   1342.70      20.534      2540.429      4533.138       141.921        16.293        84.732
  ---------------------------------------------------------------------------------------------------------------------------------
  System               100.00    794.69   1342.70      20.534      2540.429      4533.138       141.921        16.293        84.732
  
  
  ********************
  Link Flow Summary
  ********************
  
  -----------------------------------------------------------------------------
                                 Maximum  Time of Max   Maximum    Max/    Max/
                                  |Flow|   Occurrence   |Veloc|    Full    Full
  Link                 Type          LPS  days hr:min     m/sec    Flow   Depth
  -----------------------------------------------------------------------------
  WS02003066WSF200     CONDUIT    955.95     0  01:58      3.01    0.16    0.32
  WS02006287WS02006284 CONDUIT    735.69     0  01:54      2.45    0.34    0.41
  WS02006284WS02006280 CONDUIT    736.05     0  01:54      2.68    0.31    0.38
  WS02006280WS02006229 CONDUIT    757.79     0  01:55      4.29    0.16    0.58
  WS02006229WS02006228 CONDUIT    936.59     0  01:56      1.86    3.10    1.00
  WS02006256WS02006235 CONDUIT    255.99     0  01:28      3.62    2.71    1.00
  WS02006253WS02006251 CONDUIT    186.18     0  01:54      0.75    0.56    1.00
  WS02006252WS02006251 CONDUIT    400.57     0  03:10      3.19    1.47    1.00
  WS02006251WS02006249 CONDUIT    465.33     0  02:30      1.21    1.34    1.00
  WS02006249WS02006248 CONDUIT    375.69     0  06:01      1.19    2.06    1.00
  WS02006248WS02006247 CONDUIT    370.82     0  06:01      1.16    0.81    1.00
  WS02006247WS02006245 CONDUIT    366.41     0  06:01      1.14    2.91    1.00
  WS02006245WS02006243 CONDUIT    361.05     0  06:01      1.19    1.07    1.00
  WS02006243WS02006242 CONDUIT    352.02     0  06:02      1.07    0.75    1.00
  WS02006242WS02006240 CONDUIT    343.25     0  06:02      1.01    1.36    1.00
  WS02006240WS02006239 CONDUIT    334.95     0  06:03      1.06    1.05    1.00
  WS02006239WS02006238 CONDUIT    331.74     0  06:03      0.96    1.06    1.00
  WS02006238WS02006235 CONDUIT    330.51     0  06:03      0.95    0.74    1.00
  WS02006235WS02006234 CONDUIT    516.17     0  03:53      1.34    5.45    1.00
  WS02006234WS02006232 CONDUIT    515.78     0  03:53      1.34    1.04    1.00
  WS02006232WS02006231 CONDUIT    515.73     0  03:52      1.34    1.08    1.00
  WS02006231WS02006230 CONDUIT    515.67     0  03:53      1.36    7.82    1.00
  WS02006230WS02006229 CONDUIT    525.88     0  03:53      1.37   11.70    1.00
  WS02006228WS02006109 CONDUIT    936.77     0  01:56      1.86    4.09    1.00
  WS02006116WS02004401 CONDUIT    967.24     0  01:56      1.23    1.33    1.00
  WS02006115WS02006116 CONDUIT    967.93     0  01:56      1.23    1.24    1.00
  WS02006113WS02006111 CONDUIT    937.39     0  01:56      2.62    1.12    1.00
  WS02006112WS02006115 CONDUIT    966.42     0  01:56      1.23    0.57    1.00
  WS02006111WS02006112 CONDUIT    937.91     0  01:56      1.87    0.45    1.00
  WS02006110WS02006113 CONDUIT    937.82     0  01:56      1.87    0.85    1.00
  WS02006109WS02006110 CONDUIT    937.61     0  01:56      1.87    1.80    1.00
  WS02004411WS02004412 CONDUIT    954.87     0  01:57      1.28    1.36    0.93
  WS02004401WS02004402 CONDUIT    968.29     0  01:56      1.23    1.16    1.00
  WS02004413WS02003067 CONDUIT    954.95     0  01:58      1.57    0.41    0.72
  WS02004412WS02004413 CONDUIT    955.04     0  01:58      1.23    0.64    0.96
  WS02004410WS02004411 CONDUIT    953.68     0  01:57      1.24    1.30    0.95
  WS02004409WS02004410 CONDUIT    956.84     0  01:56      1.24    1.24    0.97
  WS02004407WS02004409 CONDUIT    968.05     0  01:56      1.72    0.34    0.69
  WS02004406WS02004407 CONDUIT    969.79     0  01:56      1.65    0.43    0.70
  WS02004405WS02004406 CONDUIT    969.73     0  01:56      1.23    1.91    1.00
  WS02004404WS02004405 CONDUIT    969.11     0  01:56      1.23    9.49    1.00
  WS02004403WS02004404 CONDUIT    968.72     0  01:56      1.23    0.70    1.00
  WS02004402WS02004403 CONDUIT    968.52     0  01:56      1.23    1.39    1.00
  WS02004139WS02001211 CONDUIT    382.08     0  04:29      0.90    0.48    0.64
  WS02004138WS02004139 CONDUIT    394.13     0  00:00      3.62    0.08    0.47
  WS02003067WS02003066 CONDUIT    955.42     0  01:57      1.66    0.31    0.51
  WS02001213WS02003059 CONDUIT    396.66     0  04:30      0.89    0.65    0.87
  WS02001212WS02001213 CONDUIT    393.35     0  04:30      1.32    0.61    0.56
  WS02001211WS02001212 CONDUIT    391.40     0  04:29      0.78    0.30    0.71
  WS02003072WS02003073 CONDUIT   1340.62     0  02:04      1.96    2.90    0.58
  WS02003069WS02003072 CONDUIT   1340.40     0  02:03      1.82    0.65    0.62
  WS02003060WS02003069 CONDUIT   1340.13     0  02:03      2.03    0.52    0.57
  WS02003059WS02003060 CONDUIT    401.21     0  04:30      0.95    0.26    0.77
  HS02004901HS02004770 CONDUIT     36.84     0  01:52      0.10    0.14    0.54
  HS02004876HS02004881 CONDUIT    139.11     0  01:54      1.26    1.48    0.16
  HS02004870HS02004876 CONDUIT    112.62     0  01:54      0.85    0.07    0.19
  HS02004842HS02004848 CONDUIT     18.18     0  02:06      0.08    0.01    0.34
  HS02004837HS02004842 CONDUIT     18.64     0  02:07      0.42    0.01    0.35
  HS02004830HS02004837 CONDUIT     67.83     0  01:54      0.68    0.07    0.14
  HS02004824HS02004830 CONDUIT     68.06     0  01:56      0.62    0.09    0.18
  HS02004817HS02004824 CONDUIT    136.50     0  01:57      0.32    0.06    0.60
  HS02004770HS02004777 CONDUIT    189.68     0  01:52      0.49    0.35    0.55
  HS02004799HS02004480 CONDUIT    470.62     0  01:53      1.09    0.59    0.62
  HS02004792HS02004799 CONDUIT    430.86     0  01:53      1.22    0.26    0.50
  HS02004788HS02004792 CONDUIT    248.72     0  01:54      1.29    0.16    0.28
  HS02004785HS02004788 CONDUIT    189.53     0  01:53      0.92    1.43    0.30
  HS02004777HS02004785 CONDUIT    189.41     0  01:53      0.59    0.23    0.46
  HS02004480HS02004478 CONDUIT    554.36     0  01:53      1.59    2.33    0.50
  HS02004479HS02004480 CONDUIT     83.72     0  01:53      0.37    0.08    0.59
  HS02004862HS02004870 CONDUIT     86.18     0  01:55      0.82    0.09    0.15
  HS02004848HS02004852 CONDUIT     40.37     0  01:54      0.54    0.05    0.11
  HS02004856HS02004862 CONDUIT     60.18     0  01:54      0.61    0.06    0.14
  HS02004852HS02004856 CONDUIT     40.43     0  01:55      0.35    0.05    0.17
  HS02004802HS02004478 CONDUIT    184.71     0  01:57      0.53    0.16    0.50
  HS02004478WS02006287 CONDUIT    735.62     0  01:54      2.18    0.21    0.38
  HS02004817HS02004807 CONDUIT    137.40     0  01:57      0.26    0.08    0.77
  HS02004807HS02004802 CONDUIT    183.91     0  01:56      0.47    0.35    0.56
  YS02001759YS02001757 CONDUIT    879.01     0  01:57      1.12    0.62    1.00
  YS02001762YS02001759 CONDUIT    433.16     0  01:55      0.55    0.50    1.00
  YS02001765YS02001762 CONDUIT    434.02     0  01:55      0.55    0.41    1.00
  YS02001770YS02001767 CONDUIT    434.36     0  01:55      0.55    1.72    1.00
  YS02001774YS02001770 CONDUIT    714.17     0  03:01      0.91    0.46    1.00
  YS02001779YS02001774 CONDUIT    714.25     0  03:01      0.91    0.36    1.00
  YS02001649YS02001757 CONDUIT   1003.75     0  01:52      1.28    0.61    1.00
  YS02001767YS02001765 CONDUIT    434.08     0  01:55      0.55    0.55    1.00
  YS02006561YS02001783 CONDUIT    982.68     0  02:14      2.14    0.51    1.00
  YS02001783YS02001784 CONDUIT    982.50     0  02:14      1.95    1.35    1.00
  YS02001784YS02001785 CONDUIT    983.47     0  02:10      1.96    2.29    1.00
  YS02001788YS02001790 CONDUIT    983.72     0  02:10      2.44    0.73    1.00
  YS02001790YS02001791 CONDUIT    984.05     0  02:10      2.91    1.07    1.00
  YS02001791YS02001793 CONDUIT    984.18     0  02:10      5.77    0.42    1.00
  YS02001910YS02001907 CONDUIT    656.20     0  01:52      0.84    0.37    1.00
  YS02001786YS02001788 CONDUIT    983.70     0  02:10      2.31    1.90    1.00
  YS02001915YS02001910 CONDUIT    656.26     0  01:52      0.84    0.33    1.00
  YS02001918YS02001915 CONDUIT    375.81     0  01:52      0.50    0.21    1.00
  YS02001923YS02001920 CONDUIT    371.59     0  01:52      0.82    0.17    1.00
  YS02001926YS02001923 CONDUIT    310.94     0  01:53      0.92    0.44    1.00
  YS02001929YS02001926 CONDUIT    265.63     0  01:52      0.98    0.13    0.99
  YS02001920YS02001918 CONDUIT    374.59     0  01:52      0.77    0.36    1.00
  YS02001629YS02163301 CONDUIT    222.01     0  01:45      0.28    0.27    1.00
  YS02001619YS02001622 CONDUIT    389.12     0  02:16      0.74    0.57    1.00
  YS02001622YS02001625 CONDUIT    388.61     0  02:16      0.49    0.21    1.00
  YS02001625YS02001629 CONDUIT    217.55     0  01:48      0.29    0.10    1.00
  YS02163301YS02001633 CONDUIT    223.81     0  01:45      0.28    0.21    1.00
  YS02163601YS02164001 CONDUIT    455.40     0  01:48      0.58    0.40    1.00
  YS02164001YS02001641 CONDUIT    454.26     0  01:48      0.58    0.62    1.00
  YS02001641YS02001644 CONDUIT    454.20     0  01:48      0.58    1.47    1.00
  YS02001647YS02001649 CONDUIT    800.89     0  03:01      1.02    0.42    1.00
  YS02006553YS02006556 CONDUIT    718.54     0  03:35      0.91    0.61    1.00
  YS02006556YS02006558 CONDUIT    718.66     0  03:35      0.92    0.57    1.00
  YSB6556YSB1171       CONDUIT     46.62     0  01:54      0.14    0.05    0.84
  YS02001907YS02006553 CONDUIT    718.46     0  03:35      0.80    0.85    1.00
  YS02006558YS02006561 CONDUIT    982.47     0  02:10      3.47    2.17    1.00
  YS02001633YS02163601 CONDUIT    455.64     0  01:48      0.58    0.48    1.00
  YS02001644YS02001647 CONDUIT    800.95     0  03:01      1.02    0.47    1.00
  YS02001745YS02001748 CONDUIT    450.01     0  02:16      1.67    0.17    0.98
  YS02001748YS02001751 CONDUIT    450.60     0  02:16      1.21    0.23    1.00
  YS02001751YS02001754 CONDUIT    450.02     0  02:16      1.02    0.22    1.00
  YS02001754YS02001757 CONDUIT    450.26     0  02:16      0.57    0.18    1.00
  YS02001882YS02001884 CONDUIT     59.34     0  01:48      0.16    0.07    1.00
  YS02001884YS02001887 CONDUIT     66.74     0  01:46      0.12    0.09    1.00
  YS02001890YS02001895 CONDUIT    519.69     0  01:51      0.66    0.24    1.00
  YS02001895YS02001898 CONDUIT    520.25     0  01:51      0.66    0.90    1.00
  YS02001898YS02001901 CONDUIT    520.98     0  01:51      0.66    0.34    1.00
  YS02001901YS02001904 CONDUIT    520.65     0  01:51      0.66    0.81    1.00
  YS02001904YS02001907 CONDUIT    520.38     0  01:51      0.66    0.18    1.00
  YS02001887YS02001890 CONDUIT    677.30     0  02:12      0.86    1.16    1.00
  YS02001652YS02001649 CONDUIT    519.96     0  02:11      0.71    0.26    1.00
  YS02001655YS02001652 CONDUIT    519.89     0  02:11      1.09    0.25    1.00
  YS02001658YS02001655 CONDUIT    518.33     0  02:11      1.41    0.22    1.00
  YS02001661YS02001658 CONDUIT    523.55     0  02:02      1.78    0.21    1.00
  YS02001664YS02001661 CONDUIT    763.88     0  01:52      1.69    0.24    0.76
  YSB1154YSB6556       CONDUIT     46.63     0  01:53      0.15    0.08    0.75
  YSB1174YSB1171       CONDUIT     38.41     0  01:50      0.11    0.06    0.87
  YSB1171HS02004479    CONDUIT     83.75     0  01:53      0.54    0.06    0.70
  HS02004881HS02006253 CONDUIT    159.99     0  01:54      2.74    0.03    0.54
  YS02001793JiankangQianchi CONDUIT    984.56     0  02:13     16.54    0.08    1.00
  YS02001757CaochengTiaoxuchi CONDUIT   2148.31     0  01:55      3.55    0.94    1.00
  WSF200WS02003060     CONDUIT    956.86     0  01:58      1.97    0.21    0.45
  1                    CONDUIT   1342.70     0  02:05      3.59    0.47    0.48
  CC-Pump-1            PUMP       200.00     0  02:20              1.00
  CC-Pump-2            PUMP       200.00     0  03:10              1.00
  JK-Pump-1            PUMP       300.00     0  02:00              1.00
  JK-Pump-2            PUMP       683.00     0  02:00              1.00
  XR-Pump-1            PUMP        95.00     0  00:00              1.00
  XR-Pump-2            PUMP        95.00     0  00:00              1.00
  XR-Pump-3            PUMP        95.00     0  00:00              1.00
  XR-Pump-4            PUMP        95.00     0  00:00              1.00
  
  
  ***************************
  Flow Classification Summary
  ***************************
  
  -------------------------------------------------------------------------------------
                      Adjusted    ---------- Fraction of Time in Flow Class ---------- 
                       /Actual         Up    Down  Sub   Sup   Up    Down  Norm  Inlet 
  Conduit               Length    Dry  Dry   Dry   Crit  Crit  Crit  Crit  Ltd   Ctrl  
  -------------------------------------------------------------------------------------
  WS02003066WSF200        1.00   0.01  0.06  0.00  0.00  0.93  0.00  0.00  0.49  0.00
  WS02006287WS02006284    1.00   0.03  0.01  0.00  0.59  0.37  0.00  0.00  0.63  0.00
  WS02006284WS02006280    1.00   0.03  0.00  0.00  0.00  0.00  0.00  0.97  0.00  0.00
  WS02006280WS02006229    1.00   0.03  0.00  0.00  0.02  0.04  0.00  0.91  0.02  0.00
  WS02006229WS02006228    1.00   0.00  0.00  0.00  1.00  0.00  0.00  0.00  0.00  0.00
  WS02006256WS02006235    1.00   0.04  0.00  0.00  0.96  0.00  0.00  0.00  0.00  0.00
  WS02006253WS02006251    1.00   0.01  0.02  0.00  0.96  0.00  0.01  0.00  0.00  0.00
  WS02006252WS02006251    1.00   0.10  0.00  0.00  0.17  0.00  0.73  0.00  0.00  0.00
  WS02006251WS02006249    1.00   0.00  0.00  0.00  1.00  0.00  0.00  0.00  0.27  0.00
  WS02006249WS02006248    1.00   0.00  0.00  0.00  0.92  0.00  0.08  0.00  0.00  0.00
  WS02006248WS02006247    1.00   0.01  0.00  0.00  0.98  0.00  0.00  0.01  0.09  0.00
  WS02006247WS02006245    1.00   0.01  0.00  0.00  0.96  0.00  0.00  0.03  0.00  0.00
  WS02006245WS02006243    1.00   0.01  0.00  0.00  0.94  0.00  0.00  0.05  0.00  0.00
  WS02006243WS02006242    1.00   0.01  0.00  0.00  0.95  0.00  0.00  0.04  0.04  0.00
  WS02006242WS02006240    1.00   0.01  0.03  0.00  0.95  0.00  0.01  0.00  0.00  0.00
  WS02006240WS02006239    1.00   0.04  0.00  0.00  0.95  0.00  0.00  0.01  0.00  0.00
  WS02006239WS02006238    1.00   0.04  0.00  0.00  0.96  0.00  0.00  0.00  0.00  0.00
  WS02006238WS02006235    1.00   0.04  0.00  0.00  0.95  0.00  0.00  0.00  0.00  0.00
  WS02006235WS02006234    1.00   0.04  0.00  0.00  0.95  0.00  0.01  0.00  0.00  0.00
  WS02006234WS02006232    1.00   0.04  0.00  0.00  0.95  0.00  0.00  0.00  0.00  0.00
  WS02006232WS02006231    1.00   0.04  0.00  0.00  0.95  0.00  0.00  0.00  0.00  0.00
  WS02006231WS02006230    1.00   0.05  0.00  0.00  0.54  0.00  0.41  0.00  0.00  0.00
  WS02006230WS02006229    1.00   0.00  0.00  0.00  0.99  0.00  0.00  0.01  0.00  0.00
  WS02006228WS02006109    1.00   0.00  0.00  0.00  1.00  0.00  0.00  0.00  0.00  0.00
  WS02006116WS02004401    1.00   0.03  0.00  0.00  0.97  0.00  0.00  0.00  0.00  0.00
  WS02006115WS02006116    1.00   0.03  0.00  0.00  0.95  0.00  0.00  0.02  0.00  0.00
  WS02006113WS02006111    1.00   0.02  0.00  0.00  0.08  0.91  0.00  0.00  0.18  0.00
  WS02006112WS02006115    1.00   0.02  0.01  0.00  0.97  0.00  0.00  0.00  0.00  0.00
  WS02006111WS02006112    1.00   0.02  0.00  0.00  0.98  0.00  0.00  0.00  0.72  0.00
  WS02006110WS02006113    1.00   0.00  0.01  0.00  0.98  0.00  0.00  0.00  0.00  0.00
  WS02006109WS02006110    1.00   0.00  0.00  0.00  0.99  0.00  0.00  0.00  0.00  0.00
  WS02004411WS02004412    1.00   0.06  0.00  0.00  0.94  0.00  0.00  0.00  0.00  0.00
  WS02004401WS02004402    1.00   0.03  0.00  0.00  0.97  0.00  0.00  0.00  0.03  0.00
  WS02004413WS02003067    1.00   0.06  0.01  0.00  0.00  0.00  0.94  0.00  0.00  0.00
  WS02004412WS02004413    1.00   0.06  0.00  0.00  0.94  0.00  0.00  0.00  0.00  0.00
  WS02004410WS02004411    1.00   0.06  0.00  0.00  0.94  0.00  0.00  0.00  0.00  0.00
  WS02004409WS02004410    1.00   0.05  0.00  0.00  0.94  0.00  0.00  0.00  0.00  0.00
  WS02004407WS02004409    1.00   0.05  0.00  0.00  0.94  0.01  0.00  0.00  0.80  0.00
  WS02004406WS02004407    1.00   0.00  0.05  0.00  0.95  0.00  0.00  0.00  0.00  0.00
  WS02004405WS02004406    1.00   0.00  0.00  0.00  1.00  0.00  0.00  0.00  0.04  0.00
  WS02004404WS02004405    1.00   0.00  0.00  0.00  1.00  0.00  0.00  0.00  0.00  0.00
  WS02004403WS02004404    1.00   0.00  0.03  0.00  0.97  0.00  0.00  0.00  0.04  0.00
  WS02004402WS02004403    1.00   0.03  0.00  0.00  0.97  0.00  0.00  0.00  0.00  0.00
  WS02004139WS02001211    1.00   0.00  0.00  0.00  1.00  0.00  0.00  0.00  0.00  0.00
  WS02004138WS02004139    1.00   0.00  0.00  0.00  1.00  0.00  0.00  0.00  1.00  0.00
  WS02003067WS02003066    1.00   0.06  0.00  0.00  0.93  0.00  0.00  0.00  0.00  0.00
  WS02001213WS02003059    1.00   0.00  0.00  0.00  1.00  0.00  0.00  0.00  0.00  0.00
  WS02001212WS02001213    1.00   0.00  0.00  0.00  0.93  0.00  0.07  0.00  0.00  0.00
  WS02001211WS02001212    1.00   0.00  0.00  0.00  1.00  0.00  0.00  0.00  0.00  0.00
  WS02003072WS02003073    1.00   0.00  0.00  0.00  0.00  0.00  0.00  1.00  0.00  0.00
  WS02003069WS02003072    1.00   0.00  0.00  0.00  1.00  0.00  0.00  0.00  0.09  0.00
  WS02003060WS02003069    1.00   0.00  0.00  0.00  0.99  0.01  0.00  0.00  0.07  0.00
  WS02003059WS02003060    1.00   0.00  0.00  0.00  1.00  0.00  0.00  0.00  0.00  0.00
  HS02004901HS02004770    1.00   0.03  0.00  0.00  0.97  0.00  0.00  0.00  0.00  0.00
  HS02004876HS02004881    1.00   0.00  0.00  0.00  0.90  0.10  0.00  0.00  0.00  0.00
  HS02004870HS02004876    1.00   0.00  0.00  0.00  1.00  0.00  0.00  0.00  0.95  0.00
  HS02004842HS02004848    1.00   0.00  0.03  0.00  0.97  0.00  0.00  0.00  0.56  0.00
  HS02004837HS02004842    1.00   0.00  0.00  0.00  1.00  0.00  0.00  0.00  0.11  0.00
  HS02004830HS02004837    1.00   0.00  0.00  0.00  1.00  0.00  0.00  0.00  0.99  0.00
  HS02004824HS02004830    1.00   0.00  0.00  0.00  1.00  0.00  0.00  0.00  0.03  0.00
  HS02004817HS02004824    1.00   0.00  0.00  0.00  1.00  0.00  0.00  0.00  0.92  0.00
  HS02004770HS02004777    1.00   0.00  0.03  0.00  0.97  0.00  0.00  0.00  0.02  0.00
  HS02004799HS02004480    1.00   0.00  0.01  0.00  0.96  0.00  0.03  0.00  0.00  0.00
  HS02004792HS02004799    1.00   0.00  0.00  0.00  1.00  0.00  0.00  0.00  0.98  0.00
  HS02004788HS02004792    1.00   0.00  0.00  0.00  1.00  0.00  0.00  0.00  0.98  0.00
  HS02004785HS02004788    1.00   0.00  0.00  0.00  1.00  0.00  0.00  0.00  0.00  0.00
  HS02004777HS02004785    1.00   0.00  0.00  0.00  1.00  0.00  0.00  0.00  0.11  0.00
  HS02004480HS02004478    1.00   0.03  0.00  0.00  0.67  0.00  0.00  0.29  0.00  0.00
  HS02004479HS02004480    1.00   0.01  0.00  0.00  0.99  0.00  0.00  0.00  0.11  0.00
  HS02004862HS02004870    1.00   0.00  0.00  0.00  1.00  0.00  0.00  0.00  0.03  0.00
  HS02004848HS02004852    1.00   0.03  0.00  0.00  0.97  0.00  0.00  0.00  0.79  0.00
  HS02004856HS02004862    1.00   0.00  0.04  0.00  0.96  0.00  0.00  0.00  0.84  0.00
  HS02004852HS02004856    1.00   0.03  0.00  0.00  0.97  0.00  0.00  0.00  0.77  0.00
  HS02004802HS02004478    1.00   0.03  0.00  0.00  0.97  0.00  0.00  0.00  0.02  0.00
  HS02004478WS02006287    1.00   0.04  0.00  0.00  0.72  0.24  0.00  0.00  0.62  0.00
  HS02004817HS02004807    1.00   0.00  0.03  0.00  0.97  0.00  0.00  0.00  0.01  0.00
  HS02004807HS02004802    1.00   0.03  0.00  0.00  0.96  0.00  0.00  0.00  0.00  0.00
  YS02001759YS02001757    1.00   0.00  0.00  0.00  1.00  0.00  0.00  0.00  0.15  0.00
  YS02001762YS02001759    1.00   0.00  0.00  0.00  1.00  0.00  0.00  0.00  0.02  0.00
  YS02001765YS02001762    1.00   0.00  0.00  0.00  1.00  0.00  0.00  0.00  0.13  0.00
  YS02001770YS02001767    1.00   0.00  0.00  0.00  1.00  0.00  0.00  0.00  0.00  0.00
  YS02001774YS02001770    1.00   0.00  0.03  0.00  0.97  0.00  0.00  0.00  0.02  0.00
  YS02001779YS02001774    1.00   0.00  0.00  0.00  1.00  0.00  0.00  0.00  0.17  0.00
  YS02001649YS02001757    1.00   0.00  0.00  0.00  1.00  0.00  0.00  0.00  0.15  0.00
  YS02001767YS02001765    1.00   0.00  0.00  0.00  1.00  0.00  0.00  0.00  0.00  0.00
  YS02006561YS02001783    1.00   0.04  0.00  0.00  0.47  0.49  0.00  0.00  0.45  0.00
  YS02001783YS02001784    1.00   0.00  0.04  0.00  0.96  0.00  0.00  0.00  0.00  0.00
  YS02001784YS02001785    1.00   0.00  0.00  0.00  1.00  0.00  0.00  0.00  0.16  0.00
  YS02001788YS02001790    1.00   0.00  0.00  0.00  0.51  0.49  0.00  0.00  0.35  0.00
  YS02001790YS02001791    1.00   0.00  0.00  0.00  0.48  0.52  0.00  0.00  0.40  0.00
  YS02001791YS02001793    1.00   0.00  0.00  0.00  0.51  0.49  0.00  0.00  0.02  0.00
  YS02001910YS02001907    1.00   0.00  0.00  0.00  0.99  0.00  0.00  0.01  0.12  0.00
  YS02001786YS02001788    1.00   0.00  0.00  0.00  0.49  0.51  0.00  0.00  0.00  0.00
  YS02001915YS02001910    1.00   0.00  0.00  0.00  0.99  0.01  0.00  0.00  0.13  0.00
  YS02001918YS02001915    1.00   0.00  0.00  0.00  0.99  0.00  0.00  0.00  0.50  0.00
  YS02001923YS02001920    1.00   0.00  0.00  0.00  1.00  0.00  0.00  0.00  0.74  0.00
  YS02001926YS02001923    1.00   0.00  0.02  0.00  0.25  0.00  0.73  0.00  0.00  0.00
  YS02001929YS02001926    1.00   0.00  0.03  0.00  0.97  0.00  0.00  0.00  0.65  0.00
  YS02001920YS02001918    1.00   0.00  0.00  0.00  1.00  0.00  0.00  0.00  0.00  0.00
  YS02001629YS02163301    1.00   0.04  0.00  0.00  0.96  0.00  0.00  0.00  0.00  0.00
  YS02001619YS02001622    1.00   0.03  0.00  0.00  0.97  0.00  0.00  0.00  0.00  0.00
  YS02001622YS02001625    1.00   0.03  0.00  0.00  0.97  0.00  0.00  0.00  0.03  0.00
  YS02001625YS02001629    1.00   0.03  0.01  0.00  0.94  0.00  0.01  0.00  0.00  0.00
  YS02163301YS02001633    1.00   0.00  0.04  0.00  0.96  0.00  0.00  0.00  0.00  0.00
  YS02163601YS02164001    1.00   0.00  0.02  0.00  0.98  0.00  0.00  0.00  0.00  0.00
  YS02164001YS02001641    1.00   0.00  0.02  0.00  0.98  0.00  0.00  0.00  0.06  0.00
  YS02001641YS02001644    1.00   0.00  0.00  0.00  1.00  0.00  0.00  0.00  0.00  0.00
  YS02001647YS02001649    1.00   0.00  0.04  0.00  0.96  0.00  0.00  0.00  0.01  0.00
  YS02006553YS02006556    1.00   0.00  0.00  0.00  1.00  0.00  0.00  0.00  0.03  0.00
  YS02006556YS02006558    1.00   0.00  0.00  0.00  1.00  0.00  0.00  0.00  0.00  0.00
  YSB6556YSB1171          1.00   0.01  0.02  0.00  0.97  0.00  0.00  0.00  0.00  0.00
  YS02001907YS02006553    1.00   0.00  0.01  0.00  0.99  0.00  0.00  0.00  0.00  0.00
  YS02006558YS02006561    1.00   0.04  0.00  0.00  0.25  0.70  0.00  0.00  0.44  0.00
  YS02001633YS02163601    1.00   0.00  0.00  0.00  1.00  0.00  0.00  0.00  0.15  0.00
  YS02001644YS02001647    1.00   0.00  0.04  0.00  0.96  0.00  0.00  0.00  0.00  0.00
  YS02001745YS02001748    1.00   0.00  0.00  0.00  0.93  0.00  0.00  0.07  0.01  0.00
  YS02001748YS02001751    1.00   0.00  0.00  0.00  0.98  0.02  0.00  0.00  0.14  0.00
  YS02001751YS02001754    1.00   0.00  0.00  0.00  0.95  0.00  0.00  0.05  0.01  0.00
  YS02001754YS02001757    1.00   0.00  0.00  0.00  1.00  0.00  0.00  0.00  0.17  0.00
  YS02001882YS02001884    1.00   0.04  0.00  0.00  0.96  0.00  0.00  0.00  0.00  0.00
  YS02001884YS02001887    1.00   0.01  0.01  0.00  0.97  0.00  0.00  0.00  0.00  0.00
  YS02001890YS02001895    1.00   0.00  0.04  0.00  0.96  0.00  0.00  0.00  0.00  0.00
  YS02001895YS02001898    1.00   0.04  0.00  0.00  0.95  0.00  0.01  0.00  0.00  0.00
  YS02001898YS02001901    1.00   0.04  0.00  0.00  0.96  0.00  0.00  0.00  0.01  0.00
  YS02001901YS02001904    1.00   0.04  0.00  0.00  0.96  0.00  0.00  0.00  0.00  0.00
  YS02001904YS02001907    1.00   0.00  0.04  0.00  0.96  0.00  0.00  0.00  0.00  0.00
  YS02001887YS02001890    1.00   0.00  0.00  0.00  0.99  0.00  0.01  0.00  0.00  0.00
  YS02001652YS02001649    1.00   0.00  0.00  0.00  1.00  0.00  0.00  0.00  0.15  0.00
  YS02001655YS02001652    1.00   0.00  0.00  0.00  0.95  0.00  0.00  0.05  0.01  0.00
  YS02001658YS02001655    1.00   0.00  0.03  0.00  0.94  0.02  0.00  0.00  0.02  0.00
  YS02001661YS02001658    1.00   0.03  0.00  0.00  0.93  0.04  0.00  0.00  0.01  0.00
  YS02001664YS02001661    1.00   0.03  0.00  0.00  0.94  0.03  0.00  0.00  0.10  0.00
  YSB1154YSB6556          1.00   0.03  0.00  0.00  0.97  0.00  0.00  0.00  0.01  0.00
  YSB1174YSB1171          1.00   0.01  0.01  0.00  0.98  0.00  0.00  0.00  0.00  0.00
  YSB1171HS02004479       1.00   0.01  0.00  0.00  0.99  0.00  0.00  0.00  0.10  0.00
  HS02004881HS02006253    1.00   0.01  0.00  0.00  0.64  0.02  0.00  0.33  0.47  0.00
  YS02001793JiankangQianchi    1.00   0.00  0.00  0.00  0.75  0.25  0.00  0.00  0.37  0.00
  YS02001757CaochengTiaoxuchi    1.00   0.00  0.06  0.00  0.91  0.03  0.00  0.00  0.00  0.00
  WSF200WS02003060        1.00   0.00  0.01  0.00  0.99  0.00  0.00  0.00  0.51  0.00
  1                       1.00   0.00  0.00  0.00  0.00  1.00  0.00  0.00  0.50  0.00
  
  
  *************************
  Conduit Surcharge Summary
  *************************
  
  ----------------------------------------------------------------------------
                                                           Hours        Hours 
                         --------- Hours Full --------   Above Full   Capacity
  Conduit                Both Ends  Upstream  Dnstream   Normal Flow   Limited
  ----------------------------------------------------------------------------
  WS02006229WS02006228        3.04      3.10      3.04      3.92         3.04
  WS02006256WS02006235        6.02      6.02      6.48      4.47         0.01
  WS02006253WS02006251        1.60      1.60      1.63      0.01         0.01
  WS02006252WS02006251        1.10      1.10      1.96      1.07         0.01
  WS02006251WS02006249        1.61      1.61      1.66      0.64         0.50
  WS02006249WS02006248        1.63      1.63      1.66      2.34         0.01
  WS02006248WS02006247        1.67      1.67      1.80      0.01         0.01
  WS02006247WS02006245        1.80      1.83      1.80      3.27         1.56
  WS02006245WS02006243        1.83      1.83      1.97      0.09         0.02
  WS02006243WS02006242        2.02      2.02      2.36      0.01         0.01
  WS02006242WS02006240        2.32      2.32      2.42      1.17         0.01
  WS02006240WS02006239        2.35      2.35      2.42      0.20         0.07
  WS02006239WS02006238        2.53      2.53      2.64      0.23         0.11
  WS02006238WS02006235        2.64      2.64      2.82      0.01         0.02
  WS02006235WS02006234        2.47      2.47      2.60      5.79         0.02
  WS02006234WS02006232        2.54      2.54      2.96      0.21         0.21
  WS02006232WS02006231        1.98      1.98      2.96      0.42         0.01
  WS02006231WS02006230        1.81      1.81      2.03      6.01         0.03
[...]
  YS02001779YS02001774        6.13      6.13      6.19      0.01         0.01
  YS02001649YS02001757        6.19      6.19      6.23      0.01         0.01
  YS02001767YS02001765        6.18      6.18      6.18      0.01         0.01
  YS02006561YS02001783        1.69      1.69      1.94      0.01         0.01
  YS02001783YS02001784        1.92      1.94      1.92      2.12         1.89
  YS02001784YS02001785        1.87      1.92      1.87      2.91         1.86
  YS02001788YS02001790        1.81      1.81      2.78      0.01         0.01
  YS02001790YS02001791        2.78      2.78      2.86      1.82         1.80
  YS02001791YS02001793        2.86      2.86      3.18      0.01         0.01
  YS02001910YS02001907        1.93      1.93      2.39      0.01         0.01
  YS02001786YS02001788        1.81      1.87      1.81      2.56         1.81
  YS02001915YS02001910        1.80      1.80      1.93      0.01         0.01
  YS02001918YS02001915        1.65      1.65      1.80      0.01         0.01
  YS02001923YS02001920        1.49      1.49      1.68      0.01         0.01
  YS02001926YS02001923        0.01      0.01      0.01      0.01         0.01
  YS02001929YS02001926        0.01      0.01      0.01      0.01         0.01
  YS02001920YS02001918        1.65      1.65      1.68      0.01         0.01
  YS02001629YS02163301        6.16      6.16      6.17      0.01         0.01
  YS02001619YS02001622        6.09      6.09      6.10      0.01         0.02
  YS02001622YS02001625        6.10      6.10      6.15      0.01         0.01
  YS02001625YS02001629        6.08      6.08      6.15      0.01         0.01
  YS02163301YS02001633        6.17      6.17      6.18      0.01         0.01
  YS02163601YS02164001        6.17      6.17      6.20      0.01         0.01
  YS02164001YS02001641        6.17      6.17      6.18      0.01         0.02
  YS02001641YS02001644        6.18      6.18      6.18      2.38         2.40
  YS02001647YS02001649        6.15      6.15      6.19      0.01         0.01
  YS02006553YS02006556        2.10      2.10      2.45      0.01         0.01
  YS02006556YS02006558        2.21      2.21      2.50      0.01         0.01
  YSB6556YSB1171              0.01      0.01      0.30      0.01         0.01
  YS02001907YS02006553        2.93      2.93      3.12      0.01         0.01
  YS02006558YS02006561        1.79      2.07      1.79      2.78         1.79
  YS02001633YS02163601        6.17      6.17      6.20      0.01         0.01
  YS02001644YS02001647        6.15      6.15      6.18      0.01         0.01
  YS02001745YS02001748        0.01      0.01      6.04      0.01         0.01
  YS02001748YS02001751        6.05      6.05      6.08      0.01         0.01
  YS02001751YS02001754        6.08      6.08      6.14      0.01         0.01
  YS02001754YS02001757        6.15      6.15      6.23      0.01         0.01
  YS02001882YS02001884        1.81      1.81      1.82      0.01         0.01
  YS02001884YS02001887        1.86      1.86      1.88      0.01         0.01
  YS02001890YS02001895        1.79      1.79      1.95      0.01         0.01
  YS02001895YS02001898        1.78      1.78      1.79      0.01         0.01
  YS02001898YS02001901        1.79      1.79      1.85      0.01         0.01
  YS02001901YS02001904        1.84      1.84      1.85      0.01         0.01
  YS02001904YS02001907        1.84      1.84      2.48      0.01         0.01
  YS02001887YS02001890        1.90      1.90      1.92      0.52         0.01
  YS02001652YS02001649        6.16      6.16      6.19      0.01         0.01
  YS02001655YS02001652        6.10      6.10      6.15      0.01         0.01
  YS02001658YS02001655        6.05      6.05      6.10      0.01         0.01
  YS02001661YS02001658        0.09      0.09      6.05      0.01         0.01
  YS02001664YS02001661        0.01      0.01      1.64      0.01         0.01
  HS02004881HS02006253        0.01      0.01      1.15      0.01         0.01
  YS02001793JiankangQianchi        3.10      3.10      5.95      0.01         0.01
  YS02001757CaochengTiaoxuchi        5.75      5.75      6.23      0.01         0.01
  
  
  ***************
  Pumping Summary
  ***************
  
  ---------------------------------------------------------------------------------------------------------
                                                  Min       Avg       Max     Total     Power    % Time Off
                        Percent   Number of      Flow      Flow      Flow    Volume     Usage    Pump Curve
  Pump                 Utilized   Start-Ups       LPS       LPS       LPS  10^6 ltr     Kw-hr    Low   High
  ---------------------------------------------------------------------------------------------------------
  CC-Pump-1               57.43           4      0.00    141.65    200.00     2.160      1.85    0.0    0.0
  CC-Pump-2               27.64           6      0.00    103.78    200.00     0.840      0.95    0.0    0.0
  JK-Pump-1               59.57           4      0.00    235.65    300.00     3.914     52.11    0.0    0.0
  JK-Pump-2               55.32           3      0.00    487.74    683.00     7.418     87.41    0.0   97.7
  XR-Pump-1              100.00           1      0.00     95.00     95.00     2.679     22.90    0.0    0.0
  XR-Pump-2               97.87           2      0.00     93.53     95.00     2.508     19.24    0.0    0.0
  XR-Pump-3               97.87           2      0.00     93.53     95.00     2.508     19.24    0.0    0.0
  XR-Pump-4               97.87           2      0.00     93.53     95.00     2.508     19.24    0.0    0.0
  
  
  ***************************
  Link Pollutant Load Summary
  ***************************
  
  ------------------------------------------------------------------------------------------
                                 COD            SS            TN            TP         NH4-N
  Link                            kg            kg            kg            kg            kg
  ------------------------------------------------------------------------------------------
  WS02003066WSF200          1032.168      1993.969        24.945         2.106        12.890
  WS02006287WS02006284       438.113       854.604        12.587         1.181         6.763
  WS02006284WS02006280       438.616       855.416        12.634         1.187         6.793
  WS02006280WS02006229       438.628       855.489        12.632         1.187         6.792
  WS02006229WS02006228      1021.465      1973.962        24.312         2.027        12.508
  WS02006256WS02006235       231.954       438.502         4.916         0.372         2.456
  WS02006253WS02006251        85.617       172.304         1.781         0.129         0.869
  WS02006252WS02006251       326.167       628.178         6.167         0.423         2.964
  WS02006251WS02006249       404.422       786.557         7.821         0.544         3.775
  WS02006249WS02006248       357.277       692.880         6.918         0.481         3.341
  WS02006248WS02006247       356.202       690.499         6.900         0.480         3.332
  WS02006247WS02006245       356.524       691.144         6.905         0.480         3.334
  WS02006245WS02006243       356.550       691.328         6.902         0.480         3.332
  WS02006243WS02006242       356.833       691.842         6.908         0.480         3.336
  WS02006242WS02006240       356.848       691.766         6.906         0.480         3.334
  WS02006240WS02006239       356.718       691.335         6.908         0.480         3.336
  WS02006239WS02006238       356.907       691.328         6.925         0.483         3.347
  WS02006238WS02006235       357.660       692.379         6.954         0.485         3.363
  WS02006235WS02006234       584.814      1122.172        11.741         0.847         5.750
  WS02006234WS02006232       584.308      1121.211        11.732         0.846         5.746
  WS02006232WS02006231       584.070      1120.763        11.727         0.846         5.744
  WS02006231WS02006230       584.085      1120.803        11.728         0.846         5.744
  WS02006230WS02006229       583.841      1120.379        11.722         0.845         5.741
  WS02006228WS02006109      1020.553      1972.327        24.273         2.023        12.485
  WS02006116WS02004401      1040.538      2009.458        25.185         2.128        13.019
  WS02006115WS02006116      1041.330      2010.968        25.203         2.129        13.028
  WS02006113WS02006111      1026.945      1982.387        24.987         2.114        12.936
  WS02006112WS02006115      1042.535      2013.156        25.249         2.134        13.054
  WS02006111WS02006112      1026.301      1981.080        24.971         2.113        12.927
  WS02006110WS02006113      1027.186      1982.698        25.002         2.116        12.945
  WS02006109WS02006110      1028.252      1984.460        25.062         2.123        12.980
  WS02004411WS02004412      1034.729      1998.603        25.049         2.117        12.950
  WS02004401WS02004402      1039.250      2007.100        25.141         2.123        12.995
  WS02004413WS02003067      1032.476      1994.558        24.954         2.107        12.895
  WS02004412WS02004413      1034.256      1997.731        25.031         2.115        12.939
  WS02004410WS02004411      1035.050      1999.197        25.061         2.118        12.956
  WS02004409WS02004410      1035.484      1999.991        25.078         2.120        12.966
  WS02004407WS02004409      1035.667      2000.337        25.083         2.120        12.969
  WS02004406WS02004407      1035.528      2000.089        25.075         2.119        12.964
  WS02004405WS02004406      1037.349      2003.234        25.178         2.131        13.026
  WS02004404WS02004405      1037.647      2003.911        25.158         2.128        13.012
  WS02004403WS02004404      1037.175      2003.296        25.073         2.117        12.957
  WS02004402WS02004403      1038.228      2005.215        25.110         2.120        12.978
  WS02004139WS02001211      1366.605      2315.720       102.590        12.376        62.816
  WS02004138WS02004139      1372.543      2325.754       103.027        12.429        63.083
  WS02003067WS02003066      1032.308      1994.227        24.951         2.106        12.893
  WS02001213WS02003059      1400.578      2368.940       106.133        12.824        65.044
  WS02001212WS02001213      1409.018      2383.076       106.789        12.903        65.447
  WS02001211WS02001212      1411.142      2386.540       106.975        12.926        65.562
  WS02003072WS02003073      2533.744      4523.417       141.048        16.180        84.177
  WS02003069WS02003072      2538.744      4531.546       141.492        16.235        84.453
  WS02003060WS02003069      2541.184      4535.762       141.648        16.253        84.547
  WS02003059WS02003060      1397.798      2364.167       105.948        12.802        64.932
  HS02004901HS02004770        19.398        38.440         0.369         0.028         0.174
  HS02004876HS02004881        64.843       131.158         1.382         0.100         0.674
  HS02004870HS02004876        49.302        99.620         1.094         0.080         0.537
  HS02004842HS02004848         9.278        18.137         0.191         0.013         0.089
  HS02004837HS02004842        13.927        25.527         0.662         0.072         0.384
  HS02004830HS02004837        81.309       145.734         4.858         0.568         2.931
  HS02004824HS02004830        82.102       147.039         4.931         0.577         2.976
  HS02004817HS02004824       118.566       221.809         5.667         0.624         3.333
  HS02004770HS02004777        73.684       147.826         1.507         0.104         0.700
  HS02004799HS02004480       235.090       460.657         5.679         0.484         2.882
  HS02004792HS02004799       214.149       417.348         5.330         0.464         2.722
  HS02004788HS02004792       116.320       227.352         3.333         0.303         1.756
  HS02004785HS02004788        75.104       150.097         1.654         0.123         0.793
  HS02004777HS02004785        74.433       149.021         1.592         0.115         0.755
  HS02004480HS02004478       294.437       579.959         6.704         0.559         3.371
  HS02004479HS02004480        62.986       125.173         1.336         0.113         0.681
  HS02004862HS02004870        37.532        74.850         0.862         0.066         0.425
  HS02004848HS02004852        15.822        31.382         0.320         0.022         0.149
  HS02004856HS02004862        25.851        52.199         0.514         0.035         0.242
  HS02004852HS02004856        15.836        31.405         0.320         0.022         0.149
  HS02004802HS02004478       144.596       276.115         5.947         0.629         3.432
  HS02004478WS02006287       438.256       854.805        12.603         1.183         6.773
  HS02004817HS02004807       117.202       219.658         5.526         0.607         3.245
  HS02004807HS02004802       144.758       276.361         5.979         0.633         3.453
  YS02001759YS02001757       441.881       836.879         8.612         0.604         4.198
  YS02001762YS02001759       218.106       412.013         4.446         0.315         2.188
  YS02001765YS02001762       219.672       416.160         4.494         0.319         2.214
  YS02001770YS02001767       223.658       426.954         4.424         0.303         2.154
  YS02001774YS02001770       447.899       877.187         8.661         0.580         4.191
  YS02001779YS02001774       447.400       876.315         8.727         0.591         4.238
  YS02001649YS02001757       437.425       815.221         8.733         0.602         4.214
  YS02001767YS02001765       221.837       421.444         4.548         0.323         2.243
  YS02006561YS02001783      1263.155      2384.956        26.055         1.924        12.895
  YS02001783YS02001784      1263.066      2384.829        26.051         1.924        12.893
  YS02001784YS02001785      1270.437      2396.650        26.764         2.013        13.339
  YS02001788YS02001790      1271.070      2397.688        26.837         2.022        13.385
  YS02001790YS02001791      1272.087      2399.327        26.936         2.035        13.447
  YS02001791YS02001793      1271.997      2399.176        26.932         2.034        13.445
  YS02001910YS02001907       565.680      1068.225        12.763         0.942         6.443
  YS02001786YS02001788      1270.640      2396.983        26.792         2.017        13.357
  YS02001915YS02001910       565.434      1067.720        12.717         0.936         6.412
  YS02001918YS02001915       279.017       506.113         6.898         0.593         3.624
  YS02001923YS02001920       253.816       463.050         4.875         0.348         2.375
  YS02001926YS02001923       250.720       457.486         4.750         0.335         2.304
  YS02001929YS02001926       248.038       452.774         4.638         0.323         2.239
  YS02001920YS02001918       274.858       497.396         6.807         0.587         3.579
  YS02001629YS02163301        89.659       159.281         1.893         0.124         0.888
  YS02001619YS02001622       259.381       485.236         5.243         0.348         2.461
  YS02001622YS02001625       258.416       483.721         5.219         0.346         2.450
  YS02001625YS02001629        86.725       153.460         1.848         0.120         0.865
  YS02163301YS02001633        94.515       168.805         1.971         0.131         0.926
  YS02163601YS02164001       529.078       976.606        10.165         0.735         4.886
  YS02164001YS02001641       528.975       976.424        10.153         0.733         4.879
  YS02001641YS02001644       529.997       978.138        10.165         0.734         4.884
  YS02001647YS02001649       597.494      1119.004        11.905         0.830         5.699
  YS02006553YS02006556       782.106      1457.829        16.622         1.259         8.326
  YS02006556YS02006558       782.288      1458.161        16.588         1.254         8.302
  YSB6556YSB1171              36.522        72.734         0.718         0.059         0.359
  YS02001907YS02006553       782.076      1457.796        16.650         1.263         8.344
  YS02006558YS02006561      1263.106      2384.853        26.054         1.924        12.895
  YS02001633YS02163601       529.668       977.536        10.142         0.730         4.868
  YS02001644YS02001647       605.687      1134.398        12.030         0.839         5.756
  YS02001745YS02001748       354.027       679.898         6.988         0.437         3.357
  YS02001748YS02001751       353.331       678.718         6.995         0.440         3.365
  YS02001751YS02001754       352.417       677.218         6.980         0.440         3.359
  YS02001754YS02001757       353.236       678.444         7.146         0.462         3.467
  YS02001882YS02001884         6.780        12.158         0.128         0.010         0.063
  YS02001884YS02001887         8.026        14.493         0.152         0.012         0.075
  YS02001890YS02001895       614.673      1175.252        11.358         0.858         5.542
  YS02001895YS02001898       614.575      1175.162        11.353         0.858         5.539
  YS02001898YS02001901       614.759      1175.367        11.360         0.858         5.543
  YS02001901YS02001904       613.732      1173.885        11.342         0.857         5.535
  YS02001904YS02001907       615.331      1176.382        11.442         0.869         5.595
  YS02001887YS02001890       669.051      1284.009        12.351         0.935         6.030
  YS02001652YS02001649       310.847       590.438         6.168         0.446         2.899
  YS02001655YS02001652       311.313       591.220         6.181         0.447         2.905
  YS02001658YS02001655       310.743       590.339         6.093         0.436         2.848
  YS02001661YS02001658       311.227       591.172         6.104         0.436         2.854
  YS02001664YS02001661       324.035       611.677         6.408         0.457         2.992
  YSB1154YSB6556              36.101        72.068         0.671         0.053         0.330
  YSB1174YSB1171              24.948        50.013         0.489         0.039         0.242
  YSB1171HS02004479           62.906       125.025         1.341         0.114         0.685
  HS02004881HS02006253        73.393       148.987         1.537         0.110         0.748
  YS02001793JiankangQianchi      1271.815      2398.862        26.924         2.034        13.441
  YS02001757CaochengTiaoxuchi       705.019      1341.552        13.630         0.933         6.572
  WSF200WS02003060          1032.236      1994.035        24.961         2.108        12.900
  1                         2540.429      4533.138       141.921        16.293        84.732
  CC-Pump-1                  233.471       449.357         4.415         0.302         2.122
  CC-Pump-2                   92.306       178.057         1.739         0.119         0.835
  JK-Pump-1                  330.465       632.031         6.789         0.507         3.367
  JK-Pump-2                  742.469      1422.555        14.948         1.097         7.364
  XR-Pump-1                  373.078       629.406        28.614         3.464        17.556
  XR-Pump-2                  334.327       567.407        24.897         2.999        15.233
  XR-Pump-3                  334.327       567.407        24.897         2.999        15.233
  XR-Pump-4                  334.327       567.407        24.897         2.999        15.233
  

  Analysis begun on:  Thu Jul 15 14:02:10 2021
  Analysis ended on:  Thu Jul 15 14:02:13 2021
  Total elapsed time: 00:00:03