
  EPA STORM WATER MANAGEMENT MODEL - VERSION 5.1 (Build 5.3.0.dev0)
  --------------------------------------------------------------

  WARNING 04: minimum elevation drop used for Conduit WS02004404WS02004405
  WARNING 03: negative offset ignored for Link YS02001904YS02001907
  
  *********************************************************
  NOTE: The summary statistics displayed in this report are
  based on results found at every computational time step,  
  not just on results from each reporting time step.
  *********************************************************
  
  ****************
  Analysis Options
  ****************
  Flow Units ............... LPS
  Process Models:
    Rainfall/Runoff ........ YES
    RDII ................... NO
    Snowmelt ............... NO
    Groundwater ............ NO
    Flow Routing ........... YES
    Ponding Allowed ........ NO
    Water Quality .......... YES
  Infiltration Method ...... HORTON
  Flow Routing Method ...... DYNWAVE
  Surcharge Method ......... EXTRAN
  Starting Date ............ 08/28/2015 08:00:00
  Ending Date .............. 08/28/2015 15:50:00
  Antecedent Dry Days ...... 8.0
  Report Time Step ......... 00:01:00
  Wet Time Step ............ 00:01:00
  Dry Time Step ............ 00:01:00
  Routing Time Step ........ 5.00 sec
  Variable Time Step ....... YES
  Maximum Trials ........... 8
  Number of Threads ........ 4
  Head Tolerance ........... 0.001500 m
  
  
  **************************        Volume         Depth
  Runoff Quantity Continuity     hectare-m            mm
  **************************     ---------       -------
  Total Precipitation ......         7.641        16.729
  Evaporation Loss .........         0.000         0.000
  Infiltration Loss ........         1.184         2.592
  Surface Runoff ...........         5.481        12.000
  Final Storage ............         0.977         2.139
  Continuity Error (%) .....        -0.016
  
  
  **************************           COD            SS            TN            TP         NH4-N
  Runoff Quality Continuity             kg            kg            kg            kg            kg
  **************************    ----------    ----------    ----------    ----------    ----------
  Initial Buildup ..........     41378.656     70582.865      1804.177       168.684      1032.807
  Surface Buildup ..........        30.344        63.217         2.449         0.220         1.402
  Wet Deposition ...........         0.000         0.000         0.000         0.000         0.000
  Sweeping Removal .........         0.000         0.000         0.000         0.000         0.000
  Infiltration Loss ........       127.934       247.015         2.452         0.174         1.174
  BMP Removal ..............         0.000         0.000         0.000         0.000         0.000
  Surface Runoff ...........      5553.100     10632.121       107.101         7.411        51.076
  Remaining Buildup ........     35725.917     59762.998      1697.031       161.316       981.940
  Continuity Error (%) .....         0.005         0.006         0.002         0.002         0.002
  
  
  **************************        Volume        Volume
  Flow Routing Continuity        hectare-m      10^6 ltr
  **************************     ---------     ---------
  Dry Weather Inflow .......         0.616         6.165
  Wet Weather Inflow .......         5.479        54.793
  Groundwater Inflow .......         0.000         0.000
  RDII Inflow ..............         0.000         0.000
  External Inflow ..........         0.102         1.024
  External Outflow .........         2.001        20.006
  Flooding Loss ............         3.731        37.314
  Evaporation Loss .........         0.000         0.000
  Exfiltration Loss ........         0.000         0.000
  Initial Stored Volume ....         0.076         0.761
  Final Stored Volume ......         0.655         6.553
  Continuity Error (%) .....        -1.803
  
  
  **************************           COD            SS            TN            TP         NH4-N
  Quality Routing Continuity            kg            kg            kg            kg            kg
  **************************    ----------    ----------    ----------    ----------    ----------
  Dry Weather Inflow .......      1541.201      2465.922       147.955        18.494        92.472
  Wet Weather Inflow .......      5552.227     10630.619       107.082         7.410        51.067
  Groundwater Inflow .......         0.000         0.000         0.000         0.000         0.000
  RDII Inflow ..............         0.000         0.000         0.000         0.000         0.000
  External Inflow ..........       183.418       293.469        17.608         2.201        11.005
  External Outflow .........      2472.809      4410.661       138.501        15.909        82.708
  Flooding Loss ............      4049.531      7648.733       104.233         9.118        54.802
  Exfiltration Loss ........         0.000         0.000         0.000         0.000         0.000
  Mass Reacted .............         0.000         0.000         0.000         0.000         0.000
  Initial Stored Mass ......         0.000         0.000         0.000         0.000         0.000
  Final Stored Mass ........       634.620      1132.275        25.976         2.716        14.895
  Continuity Error (%) .....         1.647         1.481         1.443         1.288         1.384
  
  
  *************************
  Highest Continuity Errors
  *************************
  Node HS02004842 (10.96%)
  Node YS02001884 (9.66%)
  Node JK-storage (-9.16%)
  Node HS02004817 (2.13%)
  Node YSB1171 (1.97%)
  
  
  ***************************
  Time-Step Critical Elements
  ***************************
  Link WS02006252WS02006251 (66.32%)
  Link WS02006280WS02006229 (10.38%)
  Link WS02006238WS02006235 (7.03%)
  Link YS02006556YS02006558 (2.37%)
  Link WS02004404WS02004405 (2.18%)
  
  
  ********************************
  Highest Flow Instability Indexes
  ********************************
  Link WS02006113WS02006111 (47)
  Link YS02163301YS02001633 (36)
  Link YS02163601YS02164001 (35)
  Link YS02001629YS02163301 (35)
  Link YS02001619YS02001622 (35)
  
  
  *************************
  Routing Time Step Summary
  *************************
  Minimum Time Step           :     0.20 sec
  Average Time Step           :     1.21 sec
  Maximum Time Step           :     5.00 sec
  Percent in Steady State     :    -0.00
  Average Iterations per Step :     3.93
  Percent Not Converging      :    14.22
  
  
  ***************************
  Subcatchment Runoff Summary
  ***************************
  
  ------------------------------------------------------------------------------------------------------------------------------
                            Total      Total      Total      Total     Imperv       Perv      Total       Total     Peak  Runoff
                           Precip      Runon       Evap      Infil     Runoff     Runoff     Runoff      Runoff   Runoff   Coeff
  Subcatchment                 mm         mm         mm         mm         mm         mm         mm    10^6 ltr      LPS
  ------------------------------------------------------------------------------------------------------------------------------
  sub0                      16.73       0.00       0.00       0.71      15.51       0.47      15.98        0.01     3.87   0.955
  sub1                      16.73       0.00       0.00       1.18      14.80       0.66      15.46        0.10    26.74   0.924
  sub2                      16.73       0.00       0.00       4.79      10.46       1.40      11.85        0.11    25.81   0.708
  sub3                      16.73       0.00       0.00       5.01      10.42       1.18      11.60        0.26    56.97   0.693
  sub4                      16.73       0.00       0.00       1.28      14.64       0.56      15.20        0.32    66.74   0.909
  sub5                      16.73       0.00       0.00       0.73      15.46       0.44      15.91        0.18    46.91   0.951
  sub7                      16.73       0.00       0.00       0.93      15.16       0.58      15.74        0.05    14.85   0.941
  sub8                      16.73       0.00       0.00       0.94      15.15       0.57      15.72        0.10    27.42   0.940
  sub9                      16.73       0.00       0.00       0.94      15.15       0.57      15.72        0.08    20.52   0.940
  sub10                     16.73       0.00       0.00       0.83      15.30       0.50      15.81        0.17    46.04   0.945
  sub11                     16.73       0.00       0.00       0.83      15.32       0.51      15.83        0.18    50.62   0.947
  sub12                     16.73       0.00       0.00       1.34      14.51       0.83      15.34        0.13    39.22   0.917
  sub14                     16.73       0.00       0.00       0.94      15.15       0.57      15.72        0.15    40.40   0.939
  sub15                     16.73       0.00       0.00       3.54      11.65       1.48      13.13        0.23    57.86   0.785
  sub16                     16.73       0.00       0.00       3.72      11.17       1.80      12.97        0.14    37.34   0.776
  sub17                     16.73       0.00       0.00       3.62      11.33       1.73      13.07        0.11    30.57   0.781
  sub22                     16.73       0.00       0.00       5.27       9.49       1.92      11.42        0.72   183.11   0.683
  sub23                     16.73       0.00       0.00       4.37      10.50       1.82      12.32        0.59   153.57   0.736
  sub60                     16.73       0.00       0.00       1.74      12.78       0.27      13.05        3.96   446.24   0.780
  sub61                     16.73       0.00       0.00       2.46      12.72       0.38      13.11        4.04   542.53   0.784
  sub62                     16.73       0.00       0.00       1.06      13.91       0.27      14.19        4.36   558.01   0.848
  sub63                     16.73       0.00       0.00       4.39      11.06       0.46      11.52        3.49   496.40   0.689
  sub64                     16.73       0.00       0.00       2.23      12.28       0.28      12.56        3.82   424.95   0.751
  sub65                     16.73       0.00       0.00       1.91      12.51       0.27      12.77        3.93   431.32   0.764
  sub66                     16.73       0.00       0.00       4.54      10.46       0.31      10.78        3.31   388.44   0.644
  sub67                     16.73       0.00       0.00       1.01      14.45       0.32      14.78        4.56   675.76   0.883
  sub68                     16.73       0.00       0.00       1.95      13.33       0.39      13.71        4.22   589.75   0.820
  sub69                     16.73       0.00       0.00       2.00      13.62       0.51      14.12        3.30   542.07   0.844
  sub70                     16.73      14.42       0.00       8.47      19.01       2.12      21.13        4.84   534.50   0.678
  sub71                     16.73       0.00       0.00       1.08      13.65       0.25      13.90        3.28   394.68   0.831
  sub72                     16.73       0.00       0.00       1.02      11.50       0.15      11.65        2.37   206.66   0.697
  1                         16.73      20.58       0.00       1.37      22.38       7.20      29.58        6.95   612.18   0.793
  2                         16.73       0.00       0.00       3.02       4.04       3.18       7.22        2.89   331.58   0.431
  
  
  ****************************
  Subcatchment Washoff Summary
  ****************************
  
  ------------------------------------------------------------------------------------------
                                 COD            SS            TN            TP         NH4-N
  Subcatchment                    kg            kg            kg            kg            kg
  ------------------------------------------------------------------------------------------
  sub0                         3.641         7.161         0.064         0.005         0.031
  sub1                        15.670        31.767         0.296         0.021         0.143
  sub2                        10.304        20.454         0.214         0.015         0.099
  sub3                        25.293        49.815         0.517         0.036         0.240
  sub4                        36.168        74.260         0.714         0.044         0.344
  sub5                        35.763        71.366         0.649         0.050         0.316
  sub7                         7.894        16.212         0.150         0.010         0.073
  sub8                        11.755        24.726         0.234         0.014         0.113
  sub9                        10.113        20.966         0.196         0.013         0.095
  sub10                       29.347        59.341         0.545         0.040         0.265
  sub11                       28.395        58.052         0.536         0.037         0.260
  sub12                       24.463        49.072         0.450         0.034         0.218
  sub14                       21.697        44.543         0.414         0.028         0.200
  sub15                       29.696        58.821         0.572         0.042         0.270
  sub16                       19.246        38.050         0.367         0.028         0.174
  sub17                       17.687        34.653         0.330         0.026         0.156
  sub22                       95.915       186.896         1.820         0.139         0.857
  sub23                       54.382       109.539         1.141         0.076         0.527
  sub60                      353.947       679.509         6.988         0.437         3.357
  sub61                      439.695       840.113         8.188         0.570         3.952
  sub62                      449.790       873.119         8.744         0.564         4.209
  sub63                      328.186       618.356         6.505         0.463         3.037
  sub64                      450.924       835.563         8.299         0.611         3.976
  sub65                      460.537       856.688         8.527         0.617         4.090
  sub66                      259.427       485.147         5.248         0.348         2.463
  sub67                      667.181      1281.068        12.075         0.900         5.853
  sub68                      479.473       924.467         9.153         0.628         4.389
  sub69                      429.286       835.450         8.068         0.576         3.873
  sub70                      758.301      1478.311        15.194         1.074         7.173
  sub71                      296.268       580.620         6.027         0.356         2.890
  sub72                      247.759       452.374         4.612         0.320         2.223
  1                          576.917      1130.968        11.723         0.829         5.484
  2                           65.566       118.435         1.802         0.109         0.773
  ------------------------------------------------------------------------------------------
  System                    6740.687     12945.882       130.363         9.060        62.122
  
  
  ******************
  Node Depth Summary
  ******************
  
  ---------------------------------------------------------------------------------
                                 Average  Maximum  Maximum  Time of Max    Reported
                                   Depth    Depth      HGL   Occurrence   Max Depth
  Node                 Type       Meters   Meters   Meters  days hr:min      Meters
  ---------------------------------------------------------------------------------
  WS02001211           JUNCTION     0.77     0.85     5.69     0  02:04        0.85
  WS02001212           JUNCTION     0.48     0.58     5.64     0  02:05        0.58
  WS02001213           JUNCTION     0.71     0.86     5.62     0  02:03        0.86
  WS02003069           JUNCTION     0.51     0.72     5.31     0  02:03        0.72
  WS02003072           JUNCTION     0.57     0.76     5.14     0  02:04        0.76
  WS02003073           JUNCTION     0.35     0.48     4.55     0  02:04        0.48
  WS02003060           JUNCTION     0.45     0.64     5.57     0  02:03        0.64
  WS02003066           JUNCTION     0.24     0.39     5.94     0  01:58        0.39
  WS02003059           JUNCTION     0.76     0.91     5.60     0  02:03        0.91
  WS02003067           JUNCTION     0.58     0.83     6.15     0  01:57        0.83
  WS02004401           JUNCTION     0.70     1.30     7.30     0  01:55        1.26
  WS02004402           JUNCTION     0.73     1.29     7.25     0  01:55        1.24
  WS02004403           JUNCTION     0.74     1.27     7.20     0  01:55        1.21
  WS02004404           JUNCTION     0.81     1.31     7.16     0  01:55        1.25
  WS02004406           JUNCTION     0.81     1.20     7.03     0  01:55        1.17
  WS02004409           JUNCTION     0.51     0.98     6.75     0  01:57        0.98
  WS02004410           JUNCTION     0.53     0.96     6.68     0  01:57        0.96
  WS02004411           JUNCTION     0.54     0.94     6.62     0  01:58        0.94
  WS02004412           JUNCTION     0.56     0.91     6.55     0  01:57        0.91
  WS02004413           JUNCTION     0.71     1.03     6.50     0  01:57        1.03
  WS02004405           JUNCTION     0.81     1.28     7.13     0  01:55        1.22
  WS02006109           JUNCTION     0.80     1.75     8.37     0  01:55        1.75
  WS02006110           JUNCTION     0.78     1.55     8.13     0  01:55        1.52
  WS02006111           JUNCTION     0.25     1.01     7.72     0  01:55        0.94
  WS02006112           JUNCTION     0.88     1.65     7.53     0  01:55        1.61
  WS02006113           JUNCTION     0.36     1.12     8.02     0  01:54        1.09
  WS02006115           JUNCTION     0.60     1.31     7.45     0  01:55        1.25
  WS02006116           JUNCTION     0.68     1.34     7.38     0  01:55        1.29
  WS02006230           JUNCTION     0.79     1.98     8.72     0  01:56        1.98
  WS02006231           JUNCTION     0.55     1.61     8.73     0  01:56        1.60
  WS02006232           JUNCTION     0.68     1.70     8.74     0  01:55        1.69
  WS02006234           JUNCTION     0.61     1.59     8.74     0  01:55        1.59
  WS02006235           JUNCTION     0.64     1.59     8.76     0  01:56        1.57
  WS02006238           JUNCTION     0.66     1.61     8.75     0  01:55        1.60
  WS02006240           JUNCTION     0.55     1.44     8.73     0  01:55        1.43
  WS02006242           JUNCTION     0.60     1.46     8.73     0  01:55        1.45
  WS02006243           JUNCTION     0.47     1.29     8.71     0  01:55        1.29
  WS02006245           JUNCTION     0.45     1.24     8.73     0  04:11        1.21
  WS02006247           JUNCTION     0.46     1.23     8.73     0  04:11        1.20
  WS02006248           JUNCTION     0.40     1.10     8.69     0  01:53        1.10
  WS02006249           JUNCTION     0.42     1.09     8.69     0  01:53        1.09
  WS02006239           JUNCTION     0.61     1.53     8.74     0  01:55        1.53
  WS02006251           JUNCTION     0.39     1.34     9.01     0  01:54        1.15
  WS02006252           JUNCTION     0.27     0.81     9.05     0  04:50        0.70
  WS02006253           JUNCTION     0.42     1.52     9.17     0  01:54        1.18
  WS02006256           JUNCTION     1.69     2.35     9.28     0  01:12        2.35
  WS02004138           JUNCTION     0.19     0.20     7.45     0  00:00        0.19
  WS02004139           JUNCTION     0.71     0.79     5.70     0  02:05        0.79
  WS02004407           JUNCTION     0.23     0.40     6.72     0  01:56        0.40
  WS02006228           JUNCTION     0.81     1.94     8.59     0  01:56        1.93
  WS02006229           JUNCTION     0.79     2.02     8.71     0  01:56        2.02
  WS02006280           JUNCTION     0.08     0.34     8.61     0  01:55        0.32
  WS02006284           JUNCTION     0.38     0.66     9.06     0  01:54        0.66
  WS02006287           JUNCTION     0.11     0.40     9.36     0  01:54        0.40
  WSF200               JUNCTION     0.23     0.44     5.67     0  01:58        0.44
  HS02004901           JUNCTION     0.13     0.38    10.21     0  01:53        0.38
  HS02004881           JUNCTION     0.01     0.06     9.08     0  01:54        0.05
  HS02004876           JUNCTION     0.05     0.17     9.20     0  01:54        0.17
  HS02004870           JUNCTION     0.02     0.10     9.38     0  01:54        0.10
  HS02004862           JUNCTION     0.02     0.11     9.50     0  01:55        0.11
  HS02004856           JUNCTION     0.08     0.15     9.58     0  01:54        0.15
  HS02004852           JUNCTION     0.01     0.08     9.59     0  01:54        0.08
  HS02004848           JUNCTION     0.01     0.07     9.67     0  01:54        0.07
  HS02004842           JUNCTION     0.34     0.40     9.67     0  01:54        0.40
  HS02004837           JUNCTION     0.03     0.09     9.67     0  01:54        0.09
  HS02004830           JUNCTION     0.04     0.11     9.58     0  01:55        0.11
  HS02004824           JUNCTION     0.03     0.15     9.55     0  01:54        0.15
  HS02004817           JUNCTION     0.45     0.71     9.56     0  01:54        0.71
  HS02004807           JUNCTION     0.14     0.38     9.55     0  01:55        0.38
  HS02004802           JUNCTION     0.17     0.41     9.54     0  01:55        0.41
  HS02004799           JUNCTION     0.13     0.48     9.69     0  01:53        0.48
  HS02004792           JUNCTION     0.04     0.22     9.75     0  01:53        0.22
  HS02004788           JUNCTION     0.03     0.16    10.06     0  01:54        0.16
  HS02004785           JUNCTION     0.05     0.25    10.15     0  01:53        0.25
  HS02004777           JUNCTION     0.16     0.40    10.20     0  01:53        0.40
  HS02004770           JUNCTION     0.13     0.37    10.21     0  01:53        0.37
  HS02004480           JUNCTION     0.09     0.39     9.64     0  01:53        0.39
  HS02004479           JUNCTION     0.13     0.43     9.64     0  01:53        0.43
  HS02004478           JUNCTION     0.07     0.29     9.52     0  01:54        0.29
  YS02001745           JUNCTION     0.79     0.97     8.49     0  02:52        0.97
  YS02001748           JUNCTION     1.20     1.41     8.49     0  02:46        1.40
  YS02001751           JUNCTION     1.38     1.60     8.48     0  02:47        1.59
  YS02001754           JUNCTION     1.64     1.86     8.47     0  02:47        1.85
  YS02001762           JUNCTION     1.84     2.06     8.46     0  02:46        2.06
  YS02001765           JUNCTION     1.79     2.01     8.46     0  02:47        2.00
  YS02001767           JUNCTION     1.75     1.96     8.45     0  02:48        1.95
  YS02001770           JUNCTION     1.75     1.94     8.43     0  02:46        1.93
  YS02001774           JUNCTION     1.81     1.99     8.41     0  02:45        1.99
  YS02001779           JUNCTION     1.55     1.68     8.37     0  01:49        1.68
  YS02001882           JUNCTION     0.64     1.67     8.38     0  01:50        1.63
  YS02001884           JUNCTION     0.73     1.76     8.38     0  01:50        1.73
  YS02001759           JUNCTION     1.87     2.10     8.46     0  02:48        2.09
  YS02001887           JUNCTION     0.81     1.82     8.36     0  01:50        1.81
  YS02001890           JUNCTION     0.84     1.81     8.32     0  01:50        1.81
  YS02001898           JUNCTION     0.61     1.57     8.30     0  01:51        1.56
  YS02001901           JUNCTION     0.72     1.68     8.29     0  01:51        1.68
  YS02001904           JUNCTION     0.70     1.64     8.27     0  02:15        1.63
  YS02001907           JUNCTION     1.03     1.96     8.25     0  01:51        1.96
  YS02001910           JUNCTION     0.82     1.86     8.37     0  01:51        1.80
  YS02001915           JUNCTION     0.62     1.74     8.46     0  01:51        1.64
  YS02001918           JUNCTION     0.37     1.54     8.61     0  01:51        1.37
  YS02001619           JUNCTION     1.34     1.61     8.54     0  01:45        1.48
  YS02001629           JUNCTION     1.69     1.85     8.40     0  01:45        1.84
  YS02001641           JUNCTION     1.79     1.95     8.38     0  01:47        1.93
  YS02001644           JUNCTION     1.79     1.92     8.35     0  01:47        1.92
  YS02001652           JUNCTION     1.65     2.01     8.61     0  04:12        1.86
  YS02001655           JUNCTION     1.41     1.90     8.75     0  04:06        1.65
  YS02001920           JUNCTION     0.47     1.67     8.68     0  01:51        1.47
  YS02001923           JUNCTION     0.30     1.58     8.84     0  01:51        1.26
  YS02001926           JUNCTION     0.34     1.54     8.98     0  01:51        1.17
  YS02001929           JUNCTION     0.21     1.03     8.73     0  01:52        1.03
  YS02001658           JUNCTION     1.14     1.85     8.99     0  04:12        1.40
  YS02001661           JUNCTION     0.90     1.87     9.27     0  04:14        1.17
  YS02001664           JUNCTION     0.41     0.57     8.50     0  04:24        0.56
  YS02001622           JUNCTION     1.36     1.60     8.50     0  01:45        1.50
  YS02001633           JUNCTION     1.78     1.97     8.42     0  01:45        1.94
  YS02001649           JUNCTION     1.84     2.05     8.44     0  02:45        2.05
  YS02001757           JUNCTION     1.97     2.20     8.46     0  02:47        2.19
  YS02001895           JUNCTION     0.60     1.57     8.31     0  02:13        1.56
  YS02001625           JUNCTION     1.64     1.78     8.38     0  01:45        1.78
  YS02163301           JUNCTION     1.72     1.90     8.41     0  01:45        1.88
  YS02163601           JUNCTION     1.83     2.01     8.41     0  01:47        1.98
  YS02164001           JUNCTION     1.77     1.94     8.40     0  01:47        1.91
  YS02001647           JUNCTION     1.63     1.80     8.41     0  04:37        1.79
  YSB1154              JUNCTION     0.27     0.58     9.64     0  01:53        0.58
  YSB6556              JUNCTION     0.16     0.47     9.64     0  01:53        0.47
  YSB1174              JUNCTION     0.22     0.53     9.64     0  01:53        0.53
  YSB1171              JUNCTION     0.42     0.74     9.64     0  01:53        0.74
  YS02006553           JUNCTION     1.03     1.97     8.25     0  02:09        1.97
  YS02006561           JUNCTION     0.37     1.12     7.78     0  01:50        1.08
  YS02006556           JUNCTION     1.00     1.93     8.24     0  02:14        1.93
  YS02006558           JUNCTION     1.04     1.98     8.25     0  02:11        1.97
  YS02001783           JUNCTION     0.60     1.70     7.85     0  01:45        1.47
  YS02001784           JUNCTION     0.61     1.60     7.66     0  01:45        1.42
  YS02001786           JUNCTION     0.54     1.47     7.50     0  01:45        1.26
  YS02001788           JUNCTION     0.46     1.31     7.28     0  01:45        1.15
  YS02001790           JUNCTION     0.58     1.96     7.60     0  04:30        1.96
  YS02001791           JUNCTION     0.54     1.84     7.31     0  01:44        1.30
  YS02001793           JUNCTION     0.75     2.52     7.36     0  04:28        1.82
  WSC                  OUTFALL      0.35     0.48     1.15     0  02:05        0.48
  JK-storage           STORAGE      3.10     5.80     6.60     0  01:45        5.80
  CC-storage           STORAGE      1.22     1.46     8.46     0  02:50        1.46
  XR-storage           STORAGE      7.14     7.72     5.72     0  02:02        7.72
  
  
  *******************
  Node Inflow Summary
  *******************
  
  -------------------------------------------------------------------------------------------------
                                  Maximum  Maximum                  Lateral       Total        Flow
                                  Lateral    Total  Time of Max      Inflow      Inflow     Balance
                                   Inflow   Inflow   Occurrence      Volume      Volume       Error
  Node                 Type           LPS      LPS  days hr:min    10^6 ltr    10^6 ltr     Percent
  -------------------------------------------------------------------------------------------------
  WS02001211           JUNCTION      7.35   389.87     0  02:45       0.207        10.1       0.388
  WS02001212           JUNCTION      0.00   392.38     0  02:45           0        10.1       0.204
  WS02001213           JUNCTION      0.00   394.45     0  02:45           0        10.1       0.287
  WS02003069           JUNCTION      0.32  1339.18     0  02:03     0.00902        20.1       0.135
  WS02003072           JUNCTION      0.00  1339.15     0  02:04           0          20       0.170
  WS02003073           JUNCTION      1.82  1341.25     0  02:04      0.0514          20       0.190
  WS02003060           JUNCTION     16.53  1338.53     0  02:03       0.466        20.1       0.129
  WS02003066           JUNCTION      0.00   954.71     0  01:58           0         9.6       0.028
  WS02003059           JUNCTION      0.00   397.17     0  02:44           0        10.1       0.378
  WS02003067           JUNCTION      0.00   954.25     0  01:58           0         9.6       0.065
  WS02004401           JUNCTION      0.00   967.92     0  01:56           0        9.76       0.159
  WS02004402           JUNCTION      0.00   967.91     0  01:56           0        9.75       0.154
  WS02004403           JUNCTION      0.00   967.92     0  01:56           0        9.73       0.144
  WS02004404           JUNCTION      0.16   969.10     0  01:56     0.00457        9.72       0.106
  WS02004406           JUNCTION      0.00   970.13     0  01:56           0         9.7       0.274
  WS02004409           JUNCTION      0.00   968.25     0  01:56           0        9.67       0.089
  WS02004410           JUNCTION      0.00   956.96     0  01:57           0        9.66       0.108
  WS02004411           JUNCTION      0.00   952.65     0  01:58           0        9.65       0.116
  WS02004412           JUNCTION      0.00   953.96     0  01:58           0        9.64       0.134
  WS02004413           JUNCTION      0.00   953.99     0  01:58           0        9.62       0.217
  WS02004405           JUNCTION      0.04   970.69     0  01:56     0.00107        9.71       0.170
  WS02006109           JUNCTION      1.23   939.39     0  01:56      0.0347        9.74       0.159
  WS02006110           JUNCTION      0.00   939.22     0  01:56           0        9.72       0.179
  WS02006111           JUNCTION      0.00   938.57     0  01:56           0         9.7       0.025
  WS02006112           JUNCTION     30.57   967.52     0  01:56       0.112        9.81       0.216
  WS02006113           JUNCTION      0.00   939.14     0  01:56           0        9.71       0.080
  WS02006115           JUNCTION      0.00   967.31     0  01:56           0        9.79       0.161
  WS02006116           JUNCTION      0.00   967.31     0  01:56           0        9.77       0.108
  WS02006230           JUNCTION     10.28   531.51     0  05:03        0.29        6.63       0.115
  WS02006231           JUNCTION      0.00   521.21     0  05:00           0        6.35       0.154
  WS02006232           JUNCTION      0.00   521.16     0  04:50           0        6.36       0.230
  WS02006234           JUNCTION      0.00   521.66     0  05:03           0        6.37       0.097
  WS02006235           JUNCTION      0.00   522.13     0  04:59           0        6.44       0.124
  WS02006238           JUNCTION      0.00   326.85     0  04:54           0        2.95       0.206
  WS02006240           JUNCTION      0.00   327.29     0  05:00           0        2.91       0.323
  WS02006242           JUNCTION      0.00   326.60     0  04:59           0         2.9       0.435
  WS02006243           JUNCTION      0.00   326.68     0  05:00           0        2.89       0.321
  WS02006245           JUNCTION      0.00   326.72     0  04:52           0        2.89       0.333
  WS02006247           JUNCTION      0.00   334.28     0  04:10           0        2.89       0.230
  WS02006248           JUNCTION      0.00   353.63     0  04:10           0         2.9       0.086
  WS02006249           JUNCTION      0.00   465.03     0  02:30           0        3.19       0.346
  WS02006239           JUNCTION      0.00   326.86     0  05:00           0        2.93       0.162
  WS02006251           JUNCTION      0.08   464.16     0  02:30     0.00217        3.24       0.236
  WS02006252           JUNCTION      0.00   400.00     0  04:50           0        2.58       0.021
  WS02006253           JUNCTION      3.87   192.13     0  01:54      0.0129       0.655       0.512
  WS02006256           JUNCTION      0.00   983.00     0  02:00           0        11.6       0.004
  WS02004138           JUNCTION      0.00   380.00     0  00:00           0        9.98       0.067
  WS02004139           JUNCTION      0.32   394.45     0  00:00     0.00905        9.98       0.448
  WS02004407           JUNCTION      0.00   970.39     0  01:56           0        9.67       0.043
  WS02006228           JUNCTION      0.00   937.86     0  01:56           0        9.72       0.125
  WS02006229           JUNCTION      0.00   988.01     0  01:55           0        9.73       0.091
  WS02006280           JUNCTION      0.00   736.03     0  01:54           0        3.11       0.015
  WS02006284           JUNCTION      0.10   735.77     0  01:54      0.0027        3.11       0.018
  WS02006287           JUNCTION      0.00   735.61     0  01:54           0        3.11       0.023
  WSF200               JUNCTION      0.00   955.17     0  01:58           0        9.59       0.020
  HS02004901           JUNCTION     37.34    37.34     0  01:51       0.136       0.136       1.313
  HS02004881           JUNCTION     14.85   153.29     0  01:54       0.053       0.601       0.087
  HS02004876           JUNCTION     26.74   139.06     0  01:54       0.103       0.549       0.099
  HS02004870           JUNCTION     27.42   112.65     0  01:54         0.1       0.446       0.025
  HS02004862           JUNCTION     26.01    86.18     0  01:54       0.116       0.346       0.050
  HS02004856           JUNCTION     20.52    60.23     0  01:54      0.0756       0.231       0.628
  HS02004852           JUNCTION      0.00    40.37     0  01:54           0       0.155       0.036
  HS02004848           JUNCTION     56.97    56.97     0  01:56       0.261       0.261       0.019
  HS02004842           JUNCTION      0.00    18.18     0  02:06           0       0.119      12.306
  HS02004837           JUNCTION     52.39    67.87     0  01:54       0.353       0.459       0.178
  HS02004830           JUNCTION      0.15    67.98     0  01:54     0.00423       0.449       0.275
  HS02004824           JUNCTION     66.79   134.67     0  01:56       0.319       0.767       0.071
  HS02004817           JUNCTION      0.60   137.08     0  01:57      0.0169       0.783       2.175
  HS02004807           JUNCTION     50.62   184.33     0  01:55       0.184       0.952       0.462
  HS02004802           JUNCTION      0.00   183.95     0  01:56           0        0.95       0.414
  HS02004799           JUNCTION     40.40   470.73     0  01:53        0.15        1.87       0.160
  HS02004792           JUNCTION    183.39   430.97     0  01:53       0.729        1.72       0.024
  HS02004788           JUNCTION     59.53   248.79     0  01:53       0.273       0.991       0.039
  HS02004785           JUNCTION      0.15   189.55     0  01:53     0.00423        0.72       0.069
  HS02004777           JUNCTION      0.03   189.71     0  01:52    0.000846        0.72       0.727
  HS02004770           JUNCTION    153.57   190.37     0  01:52       0.587       0.722       0.431
  HS02004480           JUNCTION      0.00   554.31     0  01:53           0        2.18       0.044
  HS02004479           JUNCTION      0.00    83.75     0  01:53           0       0.323       0.228
  HS02004478           JUNCTION      0.00   735.56     0  01:54           0        3.11       0.010
  YS02001745           JUNCTION    446.25   446.25     0  02:16        3.95        3.95       0.287
  YS02001748           JUNCTION      0.04   450.94     0  02:16     0.00127        3.94       0.585
  YS02001751           JUNCTION      0.01   451.05     0  02:16     0.00031        3.92       0.610
  YS02001754           JUNCTION      0.26   450.77     0  02:16     0.00733        3.91       0.635
  YS02001762           JUNCTION      0.00   433.24     0  01:55           0        2.62       0.814
  YS02001765           JUNCTION      0.00   433.60     0  01:55           0        2.62       0.933
  YS02001767           JUNCTION      0.54   434.06     0  01:55      0.0151        2.65       1.360
  YS02001770           JUNCTION    558.16   763.77     0  02:53        4.36         5.6       0.560
  YS02001774           JUNCTION      0.00   763.77     0  02:53           0        4.18       0.599
  YS02001779           JUNCTION      0.01   763.78     0  02:53    0.000141        4.15       0.380
  YS02001882           JUNCTION      0.00    62.46     0  01:48           0      0.0238       9.232
  YS02001884           JUNCTION      0.00    76.20     0  01:47           0      0.0612      10.688
  YS02001759           JUNCTION    542.57   879.64     0  01:56        4.04         5.4       0.426
  YS02001887           JUNCTION    676.21   677.13     0  02:13        4.57         4.6       0.183
  YS02001890           JUNCTION      0.00   677.66     0  02:12           0        4.56       0.198
  YS02001898           JUNCTION      0.00   526.54     0  01:51           0        4.27       0.060
  YS02001901           JUNCTION      0.00   528.36     0  01:51           0        4.27       0.155
  YS02001904           JUNCTION      0.00   529.33     0  01:51           0        4.26       0.132
  YS02001907           JUNCTION      0.00  1179.18     0  01:52           0        9.98       0.239
  YS02001910           JUNCTION      0.00   663.83     0  01:52           0        5.74       0.207
  YS02001915           JUNCTION    394.70   663.62     0  01:52        3.28        5.79       0.097
  YS02001918           JUNCTION      0.00   382.64     0  01:52           0        2.54       0.077
  YS02001619           JUNCTION    388.44   388.44     0  02:16         3.3         3.3       0.371
  YS02001629           JUNCTION      0.00   221.24     0  01:48           0        1.43       2.046
  YS02001641           JUNCTION      0.00   454.58     0  01:47           0        5.09       0.409
  YS02001644           JUNCTION    424.99  1606.51     0  02:49        3.82        14.7       0.183
  YS02001652           JUNCTION      0.00   518.97     0  02:09           0        3.44       0.675
  YS02001655           JUNCTION      0.15   517.99     0  02:09     0.00434        3.46       0.732
  YS02001920           JUNCTION      2.87   382.45     0  01:52      0.0809        2.52       0.121
  YS02001923           JUNCTION      0.04   315.71     0  01:53     0.00106        2.42       0.050
  YS02001926           JUNCTION      0.05   320.42     0  01:50     0.00147        2.39       0.121
  YS02001929           JUNCTION    206.66   206.66     0  03:01        2.37        2.38       0.026
  YS02001658           JUNCTION      0.00   520.76     0  02:03           0        3.48       0.697
  YS02001661           JUNCTION      0.00   759.47     0  01:52           0        3.83      -0.054
  YS02001664           JUNCTION    496.40   496.40     0  02:16        3.49        3.83       0.168
  YS02001622           JUNCTION      0.00   389.42     0  02:16           0        3.29       0.969
  YS02001633           JUNCTION    431.52   456.68     0  01:48        3.93        5.24       0.613
  YS02001649           JUNCTION      0.00  1003.30     0  01:49           0        7.69       0.480
  YS02001757           JUNCTION      0.00  2148.63     0  01:55           0        9.99       0.919
  YS02001895           JUNCTION      0.00   525.09     0  01:51           0        4.27       0.116
  YS02001625           JUNCTION      0.00   436.94     0  02:16           0        3.34       1.183
  YS02163301           JUNCTION      0.00   221.17     0  01:45           0        1.42       1.706
  YS02163601           JUNCTION      0.11   456.36     0  01:48      0.0031        5.11       0.587
  YS02164001           JUNCTION      0.00   455.10     0  01:48           0        5.09       0.395
  YS02001647           JUNCTION      0.00   846.70     0  02:58           0        6.83       0.416
  YSB1154              JUNCTION     46.91    46.91     0  01:52        0.18       0.181       0.807
  YSB6556              JUNCTION      0.00    46.64     0  01:52           0       0.182       0.695
  YSB1174              JUNCTION     39.22    39.22     0  01:50       0.134       0.134       0.965
  YSB1171              JUNCTION      0.00    84.02     0  01:52           0       0.322       2.010
  YS02006553           JUNCTION      0.00   717.94     0  03:35           0        7.29       0.208
  YS02006561           JUNCTION      0.00   982.49     0  02:11           0        11.5       0.008
  YS02006556           JUNCTION      0.00   718.08     0  03:35           0        7.29       0.145
  YS02006558           JUNCTION    590.63   983.93     0  02:16        4.24        11.5       0.042
  YS02001783           JUNCTION      0.00   982.63     0  02:11           0        11.5       0.017
  YS02001784           JUNCTION      1.06   983.50     0  02:15      0.0299        11.5       0.031
  YS02001786           JUNCTION      0.06   983.38     0  02:12     0.00159        11.5       0.030
  YS02001788           JUNCTION      0.07   983.59     0  02:15       0.002        11.5       0.019
  YS02001790           JUNCTION      0.15   983.90     0  02:11     0.00437        11.5       0.015
  YS02001791           JUNCTION      0.00   983.75     0  02:14           0        11.5       0.007
  YS02001793           JUNCTION      0.00   984.09     0  02:15           0        11.5      -0.031
  WSC                  OUTFALL       0.00  1341.60     0  02:05           0          20       0.000
  JK-storage           STORAGE       0.00   984.92     0  02:07           0        11.7      -8.392
  CC-storage           STORAGE       0.00  2149.51     0  01:55           0        6.58       0.988
  XR-storage           STORAGE    1054.62  1054.62     0  03:01        15.5        16.1      -0.003
  
  
  **********************
  Node Surcharge Summary
  **********************
  
  Surcharging occurs when water rises above the top of the highest conduit.
  ---------------------------------------------------------------------
                                               Max. Height   Min. Depth
                                   Hours       Above Crown    Below Rim
  Node                 Type      Surcharged         Meters       Meters
  ---------------------------------------------------------------------
  WS02004401           JUNCTION        0.81          0.305        1.355
  WS02004402           JUNCTION        0.84          0.295        1.445
  WS02004403           JUNCTION        0.84          0.269        1.761
  WS02004404           JUNCTION        1.25          0.309        2.471
  WS02004406           JUNCTION        1.08          0.204        2.246
  WS02004413           JUNCTION        0.41          0.031        2.169
  WS02004405           JUNCTION        1.16          0.278        2.522
  WS02006109           JUNCTION        3.00          0.934        0.886
  WS02006110           JUNCTION        1.79          0.637        1.213
  WS02006111           JUNCTION        0.29          0.201        1.669
  WS02006112           JUNCTION        1.98          0.650        1.030
  WS02006113           JUNCTION        0.34          0.323        1.607
  WS02006115           JUNCTION        0.71          0.297        1.953
  WS02006116           JUNCTION        0.75          0.284        2.006
  WS02006230           JUNCTION        1.45          0.898        0.672
  WS02006231           JUNCTION        1.77          0.898        0.632
  WS02006232           JUNCTION        2.88          1.004        0.476
  WS02006234           JUNCTION        2.13          0.867        0.373
  WS02006235           JUNCTION        2.45          0.881        0.409
  WS02006238           JUNCTION        2.52          0.886        0.544
  WS02006240           JUNCTION        1.79          0.728        0.662
  WS02006242           JUNCTION        1.84          0.726        0.094
  WS02006243           JUNCTION        1.50          0.583        0.187
  WS02006245           JUNCTION        1.39          0.534        0.316
  WS02006247           JUNCTION        1.38          0.515        0.245
  WS02006248           JUNCTION        1.23          0.380        0.000
  WS02006249           JUNCTION        1.27          0.390        0.000
  WS02006239           JUNCTION        2.05          0.795        0.495
  WS02006251           JUNCTION        0.72          0.311        0.869
  WS02006252           JUNCTION        1.25          0.413        0.687
  WS02006253           JUNCTION        0.93          0.483        1.997
  WS02006256           JUNCTION        6.65          2.050        0.000
  WS02006228           JUNCTION        2.95          1.108        1.092
  HS02004817           JUNCTION        0.14          0.011        1.729
  YS02001748           JUNCTION        6.04          0.330        0.860
  YS02001751           JUNCTION        6.08          0.602        0.598
  YS02001754           JUNCTION        6.14          0.815        0.335
  YS02001762           JUNCTION        6.19          1.058        0.092
  YS02001765           JUNCTION        6.18          1.006        0.094
  YS02001767           JUNCTION        6.18          0.959        0.071
  YS02001770           JUNCTION        6.18          0.909        0.011
  YS02001774           JUNCTION        6.19          0.993        0.057
  YS02001779           JUNCTION        6.13          0.680        0.000
  YS02001882           JUNCTION        1.81          0.668        0.162
  YS02001884           JUNCTION        1.82          0.699        0.171
  YS02001759           JUNCTION        6.20          1.100        0.110
  YS02001887           JUNCTION        1.88          0.771        0.179
  YS02001890           JUNCTION        1.90          0.760        0.000
  YS02001898           JUNCTION        1.78          0.537        0.203
  YS02001901           JUNCTION        1.85          0.679        0.191
  YS02001904           JUNCTION        1.84          0.640        0.210
  YS02001907           JUNCTION        2.42          0.950        0.000
  YS02001910           JUNCTION        1.93          0.862        0.238
  YS02001915           JUNCTION        1.80          0.737        0.263
  YS02001918           JUNCTION        1.65          0.542        0.268
  YS02001619           JUNCTION        6.09          0.610        0.000
  YS02001629           JUNCTION        6.09          0.470        0.000
  YS02001641           JUNCTION        6.18          0.946        0.154
  YS02001644           JUNCTION        6.19          0.920        0.000
  YS02001652           JUNCTION        6.15          0.984        0.146
  YS02001655           JUNCTION        6.10          0.899        0.301
  YS02001920           JUNCTION        1.68          0.668        0.472
  YS02001923           JUNCTION        0.01          0.372        0.448
  YS02001926           JUNCTION        0.01          0.536        0.364
  YS02001929           JUNCTION        0.01          0.032        0.748
  YS02001658           JUNCTION        6.05          0.851        0.449
  YS02001661           JUNCTION        0.13          0.796        0.594
  YS02001622           JUNCTION        6.10          0.599        0.021
  YS02001633           JUNCTION        6.17          0.945        0.115
  YS02001649           JUNCTION        6.19          1.050        0.000
  YS02001757           JUNCTION        6.23          1.197        0.013
  YS02001895           JUNCTION        1.79          0.567        0.183
  YS02001625           JUNCTION        6.15          0.780        0.000
  YS02163301           JUNCTION        6.17          0.898        0.132
  YS02163601           JUNCTION        6.20          1.010        0.070
  YS02164001           JUNCTION        6.17          0.942        0.158
  YS02001647           JUNCTION        6.15          0.798        0.102
  YS02006553           JUNCTION        2.47          0.971        0.219
  YS02006561           JUNCTION        1.69          0.317        0.833
  YS02006556           JUNCTION        2.11          0.894        0.456
  YS02006558           JUNCTION        2.08          0.879        0.521
  YS02001783           JUNCTION        1.93          0.904        0.696
  YS02001784           JUNCTION        1.91          0.795        0.695
  YS02001786           JUNCTION        1.86          0.673        0.757
  YS02001788           JUNCTION        1.80          0.506        0.974
  YS02001790           JUNCTION        2.60          1.157        0.000
  YS02001791           JUNCTION        2.68          1.043        0.877
  YS02001793           JUNCTION        2.92          1.524        1.076
  
  
  *********************
  Node Flooding Summary
  *********************
  
  Flooding refers to all water that overflows a node, whether it ponds or not.
  --------------------------------------------------------------------------
                                                             Total   Maximum
                                 Maximum   Time of Max       Flood    Ponded
                        Hours       Rate    Occurrence      Volume     Depth
  Node                 Flooded       LPS   days hr:min    10^6 ltr    Meters
  --------------------------------------------------------------------------
  WS02006248              0.17     58.70      0  01:57       0.013     0.000
  WS02006249              0.91    220.17      0  02:30       0.287     0.000
  WS02006256              4.23    829.39      0  02:00       8.036     0.000
  YS02001779              3.72    763.78      0  02:53       4.130     0.000
  YS02001890              0.81    161.29      0  02:15       0.273     0.000
  YS02001907              1.53    715.09      0  02:16       2.681     0.000
  YS02001619              0.01      6.62      0  01:45       0.000     0.000
  YS02001629              0.01      9.23      0  01:45       0.000     0.000
  YS02001644              5.98   1606.51      0  02:49      13.691     0.000
  YS02001649              0.21     59.83      0  02:53       0.024     0.000
  YS02001625              2.14    436.74      0  02:16       1.969     0.000
  YS02001790              0.01    214.62      0  04:30       0.000     0.000
  JK-storage              0.77    858.27      0  01:50       0.942     0.000
  XR-storage              4.76    674.59      0  03:01       5.269     0.000
  
  
  **********************
  Storage Volume Summary
  **********************
  
  --------------------------------------------------------------------------------------------------
                         Average     Avg  Evap Exfil       Maximum     Max    Time of Max    Maximum
                          Volume    Pcnt  Pcnt  Pcnt        Volume    Pcnt     Occurrence    Outflow
  Storage Unit           1000 m3    Full  Loss  Loss       1000 m3    Full    days hr:min        LPS
  --------------------------------------------------------------------------------------------------
  JK-storage               0.156      53     0     0         0.291     100       0  01:45     983.00
  CC-storage               3.404      22     0     0         4.066      26       0  02:50     400.00
  XR-storage               0.857      92     0     0         0.926     100       0  02:02     380.00
  
  
  ***********************
  Outfall Loading Summary
  ***********************
  
  ---------------------------------------------------------------------------------------------------------------------------------
                         Flow       Avg       Max       Total         Total         Total         Total         Total         Total
                         Freq      Flow      Flow      Volume           COD            SS            TN            TP         NH4-N
  Outfall Node           Pcnt       LPS       LPS    10^6 ltr            kg            kg            kg            kg            kg
  ---------------------------------------------------------------------------------------------------------------------------------
  WSC                  100.00    755.96   1341.60      20.006      2473.013      4411.010       138.515        15.911        82.717
  ---------------------------------------------------------------------------------------------------------------------------------
  System               100.00    755.96   1341.60      20.006      2473.013      4411.010       138.515        15.911        82.717
  
  
  ********************
  Link Flow Summary
  ********************
  
  -----------------------------------------------------------------------------
                                 Maximum  Time of Max   Maximum    Max/    Max/
                                  |Flow|   Occurrence   |Veloc|    Full    Full
  Link                 Type          LPS  days hr:min     m/sec    Flow   Depth
  -----------------------------------------------------------------------------
  WS02003066WSF200     CONDUIT    955.17     0  01:58      3.01    0.16    0.32
  WS02006287WS02006284 CONDUIT    735.68     0  01:54      2.45    0.34    0.41
  WS02006284WS02006280 CONDUIT    736.03     0  01:54      2.68    0.31    0.38
  WS02006280WS02006229 CONDUIT    757.26     0  01:55      4.30    0.16    0.58
  WS02006229WS02006228 CONDUIT    937.86     0  01:56      1.87    3.11    1.00
  WS02006256WS02006235 CONDUIT    264.10     0  01:12      3.74    2.80    1.00
  WS02006253WS02006251 CONDUIT    195.32     0  01:54      0.76    0.59    1.00
  WS02006252WS02006251 CONDUIT    404.98     0  04:50      3.22    1.49    1.00
  WS02006251WS02006249 CONDUIT    465.03     0  02:30      1.21    1.34    1.00
  WS02006249WS02006248 CONDUIT    353.63     0  04:10      1.09    1.94    1.00
  WS02006248WS02006247 CONDUIT    334.28     0  04:10      1.02    0.73    1.00
  WS02006247WS02006245 CONDUIT    326.72     0  04:52      0.97    2.59    1.00
  WS02006245WS02006243 CONDUIT    326.68     0  05:00      1.05    0.97    1.00
  WS02006243WS02006242 CONDUIT    326.60     0  04:59      0.90    0.70    1.00
  WS02006242WS02006240 CONDUIT    327.29     0  05:00      0.85    1.30    1.00
  WS02006240WS02006239 CONDUIT    326.86     0  05:00      0.91    1.03    1.00
  WS02006239WS02006238 CONDUIT    326.85     0  04:54      0.85    1.05    1.00
  WS02006238WS02006235 CONDUIT    327.62     0  04:59      1.05    0.73    1.00
  WS02006235WS02006234 CONDUIT    521.66     0  05:03      1.36    5.50    1.00
  WS02006234WS02006232 CONDUIT    521.16     0  04:50      1.35    1.05    1.00
  WS02006232WS02006231 CONDUIT    521.21     0  05:00      1.35    1.09    1.00
  WS02006231WS02006230 CONDUIT    521.23     0  05:03      1.35    7.91    1.00
  WS02006230WS02006229 CONDUIT    534.20     0  04:50      1.39   11.89    1.00
  WS02006228WS02006109 CONDUIT    938.16     0  01:56      1.87    4.10    1.00
  WS02006116WS02004401 CONDUIT    967.92     0  01:56      1.23    1.33    1.00
  WS02006115WS02006116 CONDUIT    967.31     0  01:56      1.23    1.24    1.00
  WS02006113WS02006111 CONDUIT    938.57     0  01:56      2.60    1.13    1.00
  WS02006112WS02006115 CONDUIT    967.31     0  01:56      1.23    0.57    1.00
  WS02006111WS02006112 CONDUIT    938.75     0  01:56      1.87    0.45    1.00
  WS02006110WS02006113 CONDUIT    939.14     0  01:56      1.87    0.85    1.00
  WS02006109WS02006110 CONDUIT    939.22     0  01:56      1.87    1.81    1.00
  WS02004411WS02004412 CONDUIT    953.96     0  01:58      1.26    1.36    0.93
  WS02004401WS02004402 CONDUIT    967.91     0  01:56      1.23    1.16    1.00
  WS02004413WS02003067 CONDUIT    954.25     0  01:58      1.57    0.41    0.72
  WS02004412WS02004413 CONDUIT    953.99     0  01:58      1.23    0.64    0.96
  WS02004410WS02004411 CONDUIT    952.65     0  01:58      1.24    1.30    0.95
  WS02004409WS02004410 CONDUIT    956.96     0  01:57      1.24    1.24    0.97
  WS02004407WS02004409 CONDUIT    968.25     0  01:56      1.73    0.34    0.69
  WS02004406WS02004407 CONDUIT    970.39     0  01:56      1.65    0.43    0.70
  WS02004405WS02004406 CONDUIT    970.13     0  01:56      1.24    1.91    1.00
  WS02004404WS02004405 CONDUIT    970.65     0  01:56      1.24    9.51    1.00
  WS02004403WS02004404 CONDUIT    968.94     0  01:56      1.23    0.70    1.00
  WS02004402WS02004403 CONDUIT    967.92     0  01:56      1.23    1.39    1.00
  WS02004139WS02001211 CONDUIT    382.52     0  02:45      0.90    0.48    0.64
  WS02004138WS02004139 CONDUIT    394.13     0  00:00      3.62    0.08    0.47
  WS02003067WS02003066 CONDUIT    954.71     0  01:58      1.66    0.31    0.51
  WS02001213WS02003059 CONDUIT    397.17     0  02:44      0.89    0.66    0.87
  WS02001212WS02001213 CONDUIT    394.45     0  02:45      1.32    0.61    0.56
  WS02001211WS02001212 CONDUIT    392.38     0  02:45      0.78    0.30    0.71
  WS02003072WS02003073 CONDUIT   1339.43     0  02:04      1.96    2.89    0.58
  WS02003069WS02003072 CONDUIT   1339.15     0  02:04      1.82    0.64    0.62
  WS02003060WS02003069 CONDUIT   1338.86     0  02:03      2.03    0.52    0.57
  WS02003059WS02003060 CONDUIT    401.79     0  04:31      0.95    0.26    0.77
  HS02004901HS02004770 CONDUIT     36.84     0  01:52      0.10    0.14    0.54
  HS02004876HS02004881 CONDUIT    139.07     0  01:54      1.26    1.48    0.16
  HS02004870HS02004876 CONDUIT    112.62     0  01:54      0.85    0.07    0.19
  HS02004842HS02004848 CONDUIT     18.18     0  02:06      0.08    0.01    0.34
  HS02004837HS02004842 CONDUIT     18.64     0  02:07      0.42    0.01    0.35
  HS02004830HS02004837 CONDUIT     67.83     0  01:54      0.68    0.07    0.14
  HS02004824HS02004830 CONDUIT     68.05     0  01:56      0.62    0.09    0.18
  HS02004817HS02004824 CONDUIT    136.48     0  01:57      0.32    0.06    0.60
  HS02004770HS02004777 CONDUIT    189.68     0  01:52      0.49    0.35    0.55
  HS02004799HS02004480 CONDUIT    470.62     0  01:53      1.09    0.59    0.62
  HS02004792HS02004799 CONDUIT    430.86     0  01:53      1.22    0.26    0.50
  HS02004788HS02004792 CONDUIT    248.72     0  01:54      1.29    0.16    0.28
  HS02004785HS02004788 CONDUIT    189.52     0  01:53      0.92    1.43    0.30
  HS02004777HS02004785 CONDUIT    189.40     0  01:53      0.59    0.23    0.46
  HS02004480HS02004478 CONDUIT    554.35     0  01:53      1.59    2.33    0.50
  HS02004479HS02004480 CONDUIT     83.71     0  01:53      0.37    0.08    0.59
  HS02004862HS02004870 CONDUIT     86.17     0  01:55      0.82    0.09    0.15
  HS02004848HS02004852 CONDUIT     40.37     0  01:54      0.54    0.05    0.11
  HS02004856HS02004862 CONDUIT     60.18     0  01:54      0.61    0.06    0.14
  HS02004852HS02004856 CONDUIT     40.43     0  01:55      0.35    0.05    0.17
  HS02004802HS02004478 CONDUIT    184.71     0  01:57      0.53    0.16    0.50
  HS02004478WS02006287 CONDUIT    735.61     0  01:54      2.18    0.21    0.38
  HS02004817HS02004807 CONDUIT    137.36     0  01:57      0.26    0.08    0.77
  HS02004807HS02004802 CONDUIT    183.95     0  01:56      0.47    0.35    0.56
  YS02001759YS02001757 CONDUIT    878.41     0  01:56      1.12    0.62    1.00
  YS02001762YS02001759 CONDUIT    433.37     0  01:55      0.55    0.50    1.00
  YS02001765YS02001762 CONDUIT    433.24     0  01:55      0.55    0.41    1.00
  YS02001770YS02001767 CONDUIT    433.52     0  01:55      0.55    1.72    1.00
  YS02001774YS02001770 CONDUIT    763.77     0  02:53      0.97    0.49    1.00
  YS02001779YS02001774 CONDUIT    763.78     0  02:53      0.97    0.38    1.00
  YS02001649YS02001757 CONDUIT   1004.14     0  01:49      1.28    0.61    1.00
  YS02001767YS02001765 CONDUIT    433.60     0  01:55      0.55    0.55    1.00
  YS02006561YS02001783 CONDUIT    982.63     0  02:11      2.14    0.51    1.00
  YS02001783YS02001784 CONDUIT    982.44     0  02:15      1.95    1.35    1.00
  YS02001784YS02001785 CONDUIT    983.32     0  02:12      1.96    2.29    1.00
  YS02001788YS02001790 CONDUIT    983.74     0  02:11      2.44    0.73    1.00
  YS02001790YS02001791 CONDUIT    983.75     0  02:14      2.91    1.07    1.00
  YS02001791YS02001793 CONDUIT    984.09     0  02:15      5.76    0.42    1.00
  YS02001910YS02001907 CONDUIT    663.47     0  01:52      0.84    0.37    1.00
  YS02001786YS02001788 CONDUIT    983.52     0  02:15      2.31    1.90    1.00
  YS02001915YS02001910 CONDUIT    663.83     0  01:52      0.85    0.33    1.00
  YS02001918YS02001915 CONDUIT    383.86     0  01:52      0.49    0.21    1.00
  YS02001923YS02001920 CONDUIT    379.58     0  01:52      0.81    0.17    1.00
  YS02001926YS02001923 CONDUIT    315.67     0  01:53      0.92    0.45    1.00
  YS02001929YS02001926 CONDUIT    270.43     0  01:52      0.98    0.13    1.00
  YS02001920YS02001918 CONDUIT    382.64     0  01:52      0.77    0.37    1.00
  YS02001629YS02163301 CONDUIT    221.17     0  01:45      0.28    0.27    1.00
  YS02001619YS02001622 CONDUIT    389.42     0  02:16      0.74    0.57    1.00
  YS02001622YS02001625 CONDUIT    388.65     0  02:16      0.49    0.21    1.00
  YS02001625YS02001629 CONDUIT    221.24     0  01:48      0.29    0.11    1.00
  YS02163301YS02001633 CONDUIT    223.94     0  01:46      0.29    0.21    1.00
  YS02163601YS02164001 CONDUIT    455.10     0  01:48      0.58    0.40    1.00
  YS02164001YS02001641 CONDUIT    454.58     0  01:47      0.58    0.62    1.00
  YS02001641YS02001644 CONDUIT    454.95     0  01:47      0.58    1.47    1.00
  YS02001647YS02001649 CONDUIT    846.70     0  02:58      1.08    0.45    1.00
  YS02006553YS02006556 CONDUIT    718.08     0  03:35      0.91    0.61    1.00
  YS02006556YS02006558 CONDUIT    718.29     0  03:35      0.91    0.57    1.00
  YSB6556YSB1171       CONDUIT     46.62     0  01:54      0.14    0.05    0.84
  YS02001907YS02006553 CONDUIT    717.94     0  03:35      0.80    0.84    1.00
  YS02006558YS02006561 CONDUIT    982.49     0  02:11      3.47    2.17    1.00
  YS02001633YS02163601 CONDUIT    456.25     0  01:48      0.58    0.48    1.00
  YS02001644YS02001647 CONDUIT    846.70     0  02:58      1.08    0.50    1.00
  YS02001745YS02001748 CONDUIT    450.89     0  02:16      1.67    0.17    0.98
  YS02001748YS02001751 CONDUIT    451.04     0  02:16      1.21    0.23    1.00
  YS02001751YS02001754 CONDUIT    450.51     0  02:16      1.02    0.22    1.00
  YS02001754YS02001757 CONDUIT    451.35     0  02:16      0.57    0.18    1.00
  YS02001882YS02001884 CONDUIT     62.46     0  01:48      0.16    0.07    1.00
  YS02001884YS02001887 CONDUIT     76.20     0  01:47      0.12    0.10    1.00
  YS02001890YS02001895 CONDUIT    525.09     0  01:51      0.67    0.24    1.00
  YS02001895YS02001898 CONDUIT    526.54     0  01:51      0.67    0.91    1.00
  YS02001898YS02001901 CONDUIT    528.36     0  01:51      0.67    0.34    1.00
  YS02001901YS02001904 CONDUIT    529.33     0  01:51      0.67    0.82    1.00
  YS02001904YS02001907 CONDUIT    527.84     0  01:51      0.67    0.18    1.00
  YS02001887YS02001890 CONDUIT    677.66     0  02:12      0.86    1.16    1.00
  YS02001652YS02001649 CONDUIT    520.94     0  02:09      0.71    0.26    1.00
  YS02001655YS02001652 CONDUIT    518.97     0  02:09      1.09    0.25    1.00
  YS02001658YS02001655 CONDUIT    517.83     0  02:09      1.41    0.22    1.00
  YS02001661YS02001658 CONDUIT    520.76     0  02:03      1.78    0.20    1.00
  YS02001664YS02001661 CONDUIT    759.47     0  01:52      1.69    0.24    0.77
  YSB1154YSB6556       CONDUIT     46.64     0  01:52      0.15    0.08    0.75
  YSB1174YSB1171       CONDUIT     38.39     0  01:50      0.11    0.06    0.87
  YSB1171HS02004479    CONDUIT     83.75     0  01:53      0.54    0.06    0.70
  HS02004881HS02006253 CONDUIT    158.52     0  01:54      2.75    0.03    0.54
  YS02001793JiankangQianchi CONDUIT    984.92     0  02:07     16.30    0.08    1.00
  YS02001757CaochengTiaoxuchi CONDUIT   2149.51     0  01:55      3.55    0.94    1.00
  WSF200WS02003060     CONDUIT    955.94     0  01:58      1.97    0.21    0.45
  1                    CONDUIT   1341.60     0  02:05      3.59    0.47    0.48
  CC-Pump-1            PUMP       200.00     0  02:20              1.00
  CC-Pump-2            PUMP       200.00     0  04:50              1.00
  JK-Pump-1            PUMP       300.00     0  02:00              1.00
  JK-Pump-2            PUMP       683.00     0  02:00              1.00
  XR-Pump-1            PUMP        95.00     0  00:00              1.00
  XR-Pump-2            PUMP        95.00     0  00:00              1.00
  XR-Pump-3            PUMP        95.00     0  00:00              1.00
  XR-Pump-4            PUMP        95.00     0  00:00              1.00
  
  
  ***************************
  Flow Classification Summary
  ***************************
  
  -------------------------------------------------------------------------------------
                      Adjusted    ---------- Fraction of Time in Flow Class ---------- 
                       /Actual         Up    Down  Sub   Sup   Up    Down  Norm  Inlet 
  Conduit               Length    Dry  Dry   Dry   Crit  Crit  Crit  Crit  Ltd   Ctrl  
  -------------------------------------------------------------------------------------
  WS02003066WSF200        1.00   0.01  0.05  0.00  0.00  0.94  0.00  0.00  0.51  0.00
  WS02006287WS02006284    1.00   0.03  0.01  0.00  0.65  0.31  0.00  0.00  0.63  0.00
  WS02006284WS02006280    1.00   0.03  0.00  0.00  0.00  0.00  0.00  0.97  0.00  0.00
  WS02006280WS02006229    1.00   0.03  0.00  0.00  0.02  0.04  0.00  0.91  0.02  0.00
  WS02006229WS02006228    1.00   0.00  0.00  0.00  1.00  0.00  0.00  0.00  0.00  0.00
  WS02006256WS02006235    1.00   0.04  0.00  0.00  0.96  0.00  0.00  0.00  0.00  0.00
  WS02006253WS02006251    1.00   0.01  0.02  0.00  0.96  0.00  0.01  0.00  0.00  0.00
  WS02006252WS02006251    1.00   0.10  0.00  0.00  0.09  0.00  0.81  0.00  0.00  0.00
  WS02006251WS02006249    1.00   0.00  0.00  0.00  1.00  0.00  0.00  0.00  0.19  0.00
  WS02006249WS02006248    1.00   0.00  0.00  0.00  0.92  0.00  0.08  0.00  0.00  0.00
  WS02006248WS02006247    1.00   0.01  0.00  0.00  0.98  0.00  0.00  0.01  0.07  0.00
  WS02006247WS02006245    1.00   0.01  0.00  0.00  0.96  0.00  0.00  0.03  0.00  0.00
  WS02006245WS02006243    1.00   0.01  0.00  0.00  0.94  0.00  0.00  0.06  0.00  0.00
  WS02006243WS02006242    1.00   0.01  0.00  0.00  0.96  0.00  0.00  0.03  0.08  0.00
  WS02006242WS02006240    1.00   0.01  0.03  0.00  0.96  0.00  0.00  0.00  0.00  0.00
  WS02006240WS02006239    1.00   0.04  0.00  0.00  0.96  0.00  0.00  0.00  0.01  0.00
  WS02006239WS02006238    1.00   0.04  0.00  0.00  0.96  0.00  0.00  0.00  0.00  0.00
  WS02006238WS02006235    1.00   0.04  0.00  0.00  0.96  0.00  0.00  0.00  0.00  0.00
  WS02006235WS02006234    1.00   0.04  0.00  0.00  0.96  0.00  0.00  0.00  0.00  0.00
  WS02006234WS02006232    1.00   0.04  0.00  0.00  0.96  0.00  0.00  0.00  0.00  0.00
  WS02006232WS02006231    1.00   0.04  0.00  0.00  0.96  0.00  0.00  0.00  0.00  0.00
  WS02006231WS02006230    1.00   0.04  0.00  0.00  0.58  0.00  0.39  0.00  0.00  0.00
  WS02006230WS02006229    1.00   0.00  0.00  0.00  0.99  0.00  0.00  0.01  0.00  0.00
  WS02006228WS02006109    1.00   0.00  0.00  0.00  1.00  0.00  0.00  0.00  0.00  0.00
  WS02006116WS02004401    1.00   0.03  0.00  0.00  0.97  0.00  0.00  0.00  0.00  0.00
  WS02006115WS02006116    1.00   0.03  0.00  0.00  0.95  0.00  0.00  0.02  0.00  0.00
  WS02006113WS02006111    1.00   0.02  0.00  0.00  0.07  0.91  0.00  0.00  0.16  0.00
  WS02006112WS02006115    1.00   0.02  0.01  0.00  0.97  0.00  0.00  0.00  0.00  0.00
  WS02006111WS02006112    1.00   0.02  0.00  0.00  0.98  0.00  0.00  0.00  0.78  0.00
  WS02006110WS02006113    1.00   0.00  0.01  0.00  0.98  0.00  0.00  0.00  0.00  0.00
  WS02006109WS02006110    1.00   0.00  0.00  0.00  0.99  0.00  0.00  0.00  0.00  0.00
  WS02004411WS02004412    1.00   0.05  0.00  0.00  0.95  0.00  0.00  0.00  0.00  0.00
  WS02004401WS02004402    1.00   0.03  0.00  0.00  0.97  0.00  0.00  0.00  0.03  0.00
  WS02004413WS02003067    1.00   0.05  0.01  0.00  0.00  0.00  0.94  0.00  0.00  0.00
  WS02004412WS02004413    1.00   0.05  0.00  0.00  0.95  0.00  0.00  0.00  0.00  0.00
  WS02004410WS02004411    1.00   0.05  0.00  0.00  0.95  0.00  0.00  0.00  0.00  0.00
  WS02004409WS02004410    1.00   0.05  0.00  0.00  0.95  0.00  0.00  0.00  0.00  0.00
  WS02004407WS02004409    1.00   0.05  0.00  0.00  0.94  0.01  0.00  0.00  0.82  0.00
  WS02004406WS02004407    1.00   0.00  0.05  0.00  0.95  0.00  0.00  0.00  0.00  0.00
  WS02004405WS02004406    1.00   0.00  0.00  0.00  1.00  0.00  0.00  0.00  0.04  0.00
  WS02004404WS02004405    1.00   0.00  0.00  0.00  1.00  0.00  0.00  0.00  0.00  0.00
  WS02004403WS02004404    1.00   0.00  0.03  0.00  0.97  0.00  0.00  0.00  0.04  0.00
  WS02004402WS02004403    1.00   0.03  0.00  0.00  0.97  0.00  0.00  0.00  0.00  0.00
  WS02004139WS02001211    1.00   0.00  0.00  0.00  1.00  0.00  0.00  0.00  0.00  0.00
  WS02004138WS02004139    1.00   0.00  0.00  0.00  1.00  0.00  0.00  0.00  1.00  0.00
  WS02003067WS02003066    1.00   0.06  0.00  0.00  0.94  0.00  0.00  0.00  0.00  0.00
  WS02001213WS02003059    1.00   0.00  0.00  0.00  1.00  0.00  0.00  0.00  0.00  0.00
  WS02001212WS02001213    1.00   0.00  0.00  0.00  0.93  0.00  0.07  0.00  0.00  0.00
  WS02001211WS02001212    1.00   0.00  0.00  0.00  1.00  0.00  0.00  0.00  0.00  0.00
  WS02003072WS02003073    1.00   0.00  0.00  0.00  0.00  0.00  0.00  1.00  0.00  0.00
  WS02003069WS02003072    1.00   0.00  0.00  0.00  1.00  0.00  0.00  0.00  0.08  0.00
  WS02003060WS02003069    1.00   0.00  0.00  0.00  0.99  0.01  0.00  0.00  0.07  0.00
  WS02003059WS02003060    1.00   0.00  0.00  0.00  1.00  0.00  0.00  0.00  0.00  0.00
  HS02004901HS02004770    1.00   0.03  0.00  0.00  0.97  0.00  0.00  0.00  0.00  0.00
  HS02004876HS02004881    1.00   0.00  0.00  0.00  0.90  0.09  0.00  0.00  0.00  0.00
  HS02004870HS02004876    1.00   0.00  0.00  0.00  1.00  0.00  0.00  0.00  0.95  0.00
  HS02004842HS02004848    1.00   0.00  0.03  0.00  0.97  0.00  0.00  0.00  0.56  0.00
  HS02004837HS02004842    1.00   0.00  0.00  0.00  1.00  0.00  0.00  0.00  0.11  0.00
  HS02004830HS02004837    1.00   0.00  0.00  0.00  1.00  0.00  0.00  0.00  0.99  0.00
  HS02004824HS02004830    1.00   0.00  0.00  0.00  1.00  0.00  0.00  0.00  0.03  0.00
  HS02004817HS02004824    1.00   0.00  0.00  0.00  1.00  0.00  0.00  0.00  0.92  0.00
  HS02004770HS02004777    1.00   0.00  0.03  0.00  0.97  0.00  0.00  0.00  0.02  0.00
  HS02004799HS02004480    1.00   0.00  0.01  0.00  0.96  0.00  0.03  0.00  0.00  0.00
  HS02004792HS02004799    1.00   0.00  0.00  0.00  1.00  0.00  0.00  0.00  0.98  0.00
  HS02004788HS02004792    1.00   0.00  0.00  0.00  1.00  0.00  0.00  0.00  0.98  0.00
  HS02004785HS02004788    1.00   0.00  0.00  0.00  1.00  0.00  0.00  0.00  0.00  0.00
  HS02004777HS02004785    1.00   0.00  0.00  0.00  1.00  0.00  0.00  0.00  0.11  0.00
  HS02004480HS02004478    1.00   0.03  0.00  0.00  0.71  0.00  0.00  0.26  0.00  0.00
  HS02004479HS02004480    1.00   0.01  0.00  0.00  0.99  0.00  0.00  0.00  0.11  0.00
  HS02004862HS02004870    1.00   0.00  0.00  0.00  1.00  0.00  0.00  0.00  0.03  0.00
  HS02004848HS02004852    1.00   0.03  0.00  0.00  0.97  0.00  0.00  0.00  0.79  0.00
  HS02004856HS02004862    1.00   0.00  0.04  0.00  0.96  0.00  0.00  0.00  0.84  0.00
  HS02004852HS02004856    1.00   0.03  0.00  0.00  0.97  0.00  0.00  0.00  0.77  0.00
  HS02004802HS02004478    1.00   0.03  0.00  0.00  0.97  0.00  0.00  0.00  0.02  0.00
  HS02004478WS02006287    1.00   0.04  0.00  0.00  0.75  0.21  0.00  0.00  0.62  0.00
  HS02004817HS02004807    1.00   0.00  0.03  0.00  0.97  0.00  0.00  0.00  0.01  0.00
  HS02004807HS02004802    1.00   0.03  0.00  0.00  0.96  0.00  0.00  0.00  0.00  0.00
  YS02001759YS02001757    1.00   0.00  0.00  0.00  1.00  0.00  0.00  0.00  0.15  0.00
  YS02001762YS02001759    1.00   0.00  0.00  0.00  1.00  0.00  0.00  0.00  0.02  0.00
  YS02001765YS02001762    1.00   0.00  0.00  0.00  1.00  0.00  0.00  0.00  0.13  0.00
  YS02001770YS02001767    1.00   0.00  0.00  0.00  1.00  0.00  0.00  0.00  0.00  0.00
  YS02001774YS02001770    1.00   0.00  0.03  0.00  0.97  0.00  0.00  0.00  0.02  0.00
  YS02001779YS02001774    1.00   0.00  0.00  0.00  1.00  0.00  0.00  0.00  0.17  0.00
  YS02001649YS02001757    1.00   0.00  0.00  0.00  1.00  0.00  0.00  0.00  0.15  0.00
  YS02001767YS02001765    1.00   0.00  0.00  0.00  1.00  0.00  0.00  0.00  0.00  0.00
  YS02006561YS02001783    1.00   0.04  0.00  0.00  0.38  0.57  0.00  0.00  0.45  0.00
  YS02001783YS02001784    1.00   0.00  0.05  0.00  0.95  0.00  0.00  0.00  0.00  0.00
  YS02001784YS02001785    1.00   0.00  0.00  0.00  1.00  0.00  0.00  0.00  0.16  0.00
  YS02001788YS02001790    1.00   0.00  0.00  0.00  0.43  0.57  0.00  0.00  0.37  0.00
  YS02001790YS02001791    1.00   0.00  0.00  0.00  0.40  0.60  0.00  0.00  0.42  0.00
  YS02001791YS02001793    1.00   0.00  0.00  0.00  0.43  0.57  0.00  0.00  0.02  0.00
  YS02001910YS02001907    1.00   0.00  0.00  0.00  0.99  0.00  0.00  0.01  0.12  0.00
  YS02001786YS02001788    1.00   0.00  0.00  0.00  0.41  0.59  0.00  0.00  0.00  0.00
  YS02001915YS02001910    1.00   0.00  0.00  0.00  0.99  0.01  0.00  0.00  0.13  0.00
  YS02001918YS02001915    1.00   0.00  0.00  0.00  0.99  0.00  0.00  0.00  0.51  0.00
  YS02001923YS02001920    1.00   0.00  0.00  0.00  1.00  0.00  0.00  0.00  0.74  0.00
  YS02001926YS02001923    1.00   0.00  0.02  0.00  0.21  0.00  0.77  0.00  0.00  0.00
  YS02001929YS02001926    1.00   0.00  0.03  0.00  0.97  0.00  0.00  0.00  0.65  0.00
  YS02001920YS02001918    1.00   0.00  0.00  0.00  1.00  0.00  0.00  0.00  0.00  0.00
  YS02001629YS02163301    1.00   0.04  0.00  0.00  0.96  0.00  0.00  0.00  0.00  0.00
  YS02001619YS02001622    1.00   0.03  0.00  0.00  0.97  0.00  0.00  0.00  0.00  0.00
  YS02001622YS02001625    1.00   0.03  0.00  0.00  0.97  0.00  0.00  0.00  0.03  0.00
  YS02001625YS02001629    1.00   0.03  0.01  0.00  0.94  0.00  0.01  0.00  0.00  0.00
  YS02163301YS02001633    1.00   0.00  0.04  0.00  0.96  0.00  0.00  0.00  0.00  0.00
  YS02163601YS02164001    1.00   0.00  0.02  0.00  0.98  0.00  0.00  0.00  0.00  0.00
  YS02164001YS02001641    1.00   0.00  0.02  0.00  0.98  0.00  0.00  0.00  0.06  0.00
  YS02001641YS02001644    1.00   0.00  0.00  0.00  1.00  0.00  0.00  0.00  0.00  0.00
  YS02001647YS02001649    1.00   0.00  0.04  0.00  0.96  0.00  0.00  0.00  0.01  0.00
  YS02006553YS02006556    1.00   0.00  0.00  0.00  1.00  0.00  0.00  0.00  0.03  0.00
  YS02006556YS02006558    1.00   0.00  0.00  0.00  1.00  0.00  0.00  0.00  0.00  0.00
  YSB6556YSB1171          1.00   0.01  0.02  0.00  0.97  0.00  0.00  0.00  0.00  0.00
  YS02001907YS02006553    1.00   0.00  0.01  0.00  0.99  0.00  0.00  0.00  0.00  0.00
  YS02006558YS02006561    1.00   0.04  0.00  0.00  0.21  0.74  0.00  0.00  0.43  0.00
  YS02001633YS02163601    1.00   0.00  0.00  0.00  1.00  0.00  0.00  0.00  0.15  0.00
  YS02001644YS02001647    1.00   0.00  0.04  0.00  0.96  0.00  0.00  0.00  0.00  0.00
  YS02001745YS02001748    1.00   0.00  0.00  0.00  0.93  0.00  0.00  0.07  0.01  0.00
  YS02001748YS02001751    1.00   0.00  0.00  0.00  0.97  0.03  0.00  0.00  0.14  0.00
  YS02001751YS02001754    1.00   0.00  0.00  0.00  0.95  0.00  0.00  0.05  0.01  0.00
  YS02001754YS02001757    1.00   0.00  0.00  0.00  1.00  0.00  0.00  0.00  0.17  0.00
  YS02001882YS02001884    1.00   0.04  0.00  0.00  0.96  0.00  0.00  0.00  0.00  0.00
  YS02001884YS02001887    1.00   0.01  0.01  0.00  0.97  0.00  0.00  0.00  0.00  0.00
  YS02001890YS02001895    1.00   0.00  0.04  0.00  0.96  0.00  0.00  0.00  0.00  0.00
  YS02001895YS02001898    1.00   0.04  0.00  0.00  0.95  0.00  0.01  0.00  0.00  0.00
  YS02001898YS02001901    1.00   0.04  0.00  0.00  0.96  0.00  0.00  0.00  0.01  0.00
  YS02001901YS02001904    1.00   0.04  0.00  0.00  0.96  0.00  0.00  0.00  0.00  0.00
  YS02001904YS02001907    1.00   0.00  0.04  0.00  0.96  0.00  0.00  0.00  0.00  0.00
  YS02001887YS02001890    1.00   0.00  0.00  0.00  0.99  0.00  0.01  0.00  0.00  0.00
  YS02001652YS02001649    1.00   0.00  0.00  0.00  1.00  0.00  0.00  0.00  0.15  0.00
  YS02001655YS02001652    1.00   0.00  0.00  0.00  0.95  0.00  0.00  0.05  0.01  0.00
  YS02001658YS02001655    1.00   0.00  0.03  0.00  0.94  0.02  0.00  0.00  0.02  0.00
  YS02001661YS02001658    1.00   0.03  0.00  0.00  0.93  0.04  0.00  0.00  0.01  0.00
  YS02001664YS02001661    1.00   0.03  0.00  0.00  0.94  0.03  0.00  0.00  0.10  0.00
  YSB1154YSB6556          1.00   0.03  0.00  0.00  0.97  0.00  0.00  0.00  0.01  0.00
  YSB1174YSB1171          1.00   0.01  0.01  0.00  0.98  0.00  0.00  0.00  0.00  0.00
  YSB1171HS02004479       1.00   0.01  0.00  0.00  0.99  0.00  0.00  0.00  0.10  0.00
  HS02004881HS02006253    1.00   0.01  0.00  0.00  0.54  0.04  0.00  0.41  0.44  0.00
  YS02001793JiankangQianchi    1.00   0.00  0.00  0.00  0.70  0.30  0.00  0.00  0.37  0.00
  YS02001757CaochengTiaoxuchi    1.00   0.00  0.06  0.00  0.91  0.03  0.00  0.00  0.00  0.00
  WSF200WS02003060        1.00   0.00  0.01  0.00  0.96  0.03  0.00  0.00  0.47  0.00
  1                       1.00   0.00  0.00  0.00  0.00  1.00  0.00  0.00  0.55  0.00
  
  
  *************************
  Conduit Surcharge Summary
  *************************
  
  ----------------------------------------------------------------------------
                                                           Hours        Hours 
                         --------- Hours Full --------   Above Full   Capacity
  Conduit                Both Ends  Upstream  Dnstream   Normal Flow   Limited
  ----------------------------------------------------------------------------
  WS02006229WS02006228        2.95      3.09      2.95      4.52         2.95
  WS02006256WS02006235        6.06      6.07      6.65      4.53         0.01
  WS02006253WS02006251        1.19      1.19      1.23      0.01         0.02
  WS02006252WS02006251        0.81      0.81      1.25      0.64         0.01
  WS02006251WS02006249        1.20      1.20      1.27      0.39         0.37
  WS02006249WS02006248        1.23      1.23      1.27      1.72         0.01
  WS02006248WS02006247        1.28      1.28      1.38      0.01         0.01
  WS02006247WS02006245        1.39      1.41      1.39      2.88         1.14
  WS02006245WS02006243        1.41      1.41      1.50      0.01         0.07
  WS02006243WS02006242        1.54      1.54      1.84      0.01         0.01
  WS02006242WS02006240        1.79      1.79      2.03      0.48         0.01
  WS02006240WS02006239        1.83      1.83      2.05      0.24         0.17
  WS02006239WS02006238        2.28      2.28      2.52      0.25         0.21
  WS02006238WS02006235        2.51      2.51      2.72      0.01         0.02
  WS02006235WS02006234        2.13      2.13      2.45      5.59         0.01
  WS02006234WS02006232        2.27      2.27      2.88      0.29         0.31
[...]
  YS02001779YS02001774        6.13      6.13      6.19      0.01         0.01
  YS02001649YS02001757        6.19      6.19      6.23      0.01         0.01
  YS02001767YS02001765        6.18      6.18      6.18      0.01         0.01
  YS02006561YS02001783        1.69      1.69      1.93      0.01         0.01
  YS02001783YS02001784        1.91      1.93      1.91      2.13         1.90
  YS02001784YS02001785        1.86      1.91      1.86      2.90         1.86
  YS02001788YS02001790        1.80      1.80      2.60      0.01         0.01
  YS02001790YS02001791        2.59      2.60      2.68      1.82         1.80
  YS02001791YS02001793        2.68      2.68      2.99      0.01         0.01
  YS02001910YS02001907        1.93      1.93      2.42      0.01         0.01
  YS02001786YS02001788        1.80      1.86      1.80      2.56         1.80
  YS02001915YS02001910        1.80      1.80      1.93      0.01         0.01
  YS02001918YS02001915        1.65      1.65      1.80      0.01         0.01
  YS02001923YS02001920        1.50      1.50      1.68      0.01         0.01
  YS02001926YS02001923        0.01      0.01      0.01      0.01         0.01
  YS02001929YS02001926        0.01      0.01      0.01      0.01         0.01
  YS02001920YS02001918        1.65      1.65      1.68      0.01         0.01
  YS02001629YS02163301        6.16      6.16      6.17      0.01         0.01
  YS02001619YS02001622        6.09      6.09      6.10      0.01         0.02
  YS02001622YS02001625        6.10      6.10      6.15      0.01         0.01
  YS02001625YS02001629        6.09      6.09      6.15      0.01         0.01
  YS02163301YS02001633        6.17      6.17      6.18      0.01         0.01
  YS02163601YS02164001        6.17      6.17      6.20      0.01         0.01
  YS02164001YS02001641        6.17      6.17      6.18      0.01         0.02
  YS02001641YS02001644        6.18      6.18      6.19      2.37         2.42
  YS02001647YS02001649        6.15      6.15      6.19      0.01         0.01
  YS02006553YS02006556        2.11      2.11      2.47      0.01         0.01
  YS02006556YS02006558        2.21      2.21      2.52      0.01         0.01
  YSB6556YSB1171              0.01      0.01      0.30      0.01         0.01
  YS02001907YS02006553        2.92      2.92      3.12      0.01         0.01
  YS02006558YS02006561        1.79      2.08      1.79      2.78         1.79
  YS02001633YS02163601        6.17      6.17      6.20      0.01         0.01
  YS02001644YS02001647        6.15      6.15      6.19      0.01         0.01
  YS02001745YS02001748        0.01      0.01      6.04      0.01         0.01
  YS02001748YS02001751        6.05      6.05      6.08      0.01         0.01
  YS02001751YS02001754        6.08      6.08      6.14      0.01         0.01
  YS02001754YS02001757        6.15      6.15      6.23      0.01         0.01
  YS02001882YS02001884        1.81      1.81      1.82      0.01         0.01
  YS02001884YS02001887        1.86      1.86      1.88      0.01         0.01
  YS02001890YS02001895        1.79      1.79      1.94      0.01         0.01
  YS02001895YS02001898        1.78      1.78      1.79      0.01         0.01
  YS02001898YS02001901        1.79      1.79      1.85      0.01         0.01
  YS02001901YS02001904        1.84      1.84      1.85      0.01         0.01
  YS02001904YS02001907        1.84      1.84      2.49      0.01         0.01
  YS02001887YS02001890        1.90      1.90      1.92      0.52         0.01
  YS02001652YS02001649        6.16      6.16      6.19      0.01         0.01
  YS02001655YS02001652        6.10      6.10      6.15      0.01         0.01
  YS02001658YS02001655        6.05      6.05      6.10      0.01         0.01
  YS02001661YS02001658        0.11      0.11      6.05      0.01         0.01
  YS02001664YS02001661        0.01      0.01      1.94      0.01         0.01
  HS02004881HS02006253        0.01      0.01      0.93      0.01         0.01
  YS02001793JiankangQianchi        2.91      2.91      5.65      0.01         0.01
  YS02001757CaochengTiaoxuchi        5.75      5.75      6.23      0.01         0.01
  
  
  ***************
  Pumping Summary
  ***************
  
  ---------------------------------------------------------------------------------------------------------
                                                  Min       Avg       Max     Total     Power    % Time Off
                        Percent   Number of      Flow      Flow      Flow    Volume     Usage    Pump Curve
  Pump                 Utilized   Start-Ups       LPS       LPS       LPS  10^6 ltr     Kw-hr    Low   High
  ---------------------------------------------------------------------------------------------------------
  CC-Pump-1               59.56           7      0.00    134.55    200.00     2.100      1.55    0.0    0.0
  CC-Pump-2               14.90           3      0.00    100.41    200.00     0.480      0.59    0.0    0.0
  JK-Pump-1               61.70           4      0.00    231.24    300.00     4.010     53.01    0.0    0.0
  JK-Pump-2               59.58           4      0.00    436.03    683.00     7.587     91.52    0.0   97.2
  XR-Pump-1              100.00           1      0.00     93.64     95.00     2.622     21.04    0.0    0.0
  XR-Pump-2               95.74           3      0.00     92.91     95.00     2.451     17.63    0.0    0.0
  XR-Pump-3               95.74           3      0.00     92.91     95.00     2.451     17.63    0.0    0.0
  XR-Pump-4               95.74           3      0.00     92.91     95.00     2.451     17.63    0.0    0.0
  
  
  ***************************
  Link Pollutant Load Summary
  ***************************
  
  ------------------------------------------------------------------------------------------
                                 COD            SS            TN            TP         NH4-N
  Link                            kg            kg            kg            kg            kg
  ------------------------------------------------------------------------------------------
  WS02003066WSF200           991.406      1914.588        24.034         2.033        12.425
  WS02006287WS02006284       438.115       854.611        12.586         1.181         6.762
  WS02006284WS02006280       438.623       855.429        12.633         1.187         6.792
  WS02006280WS02006229       438.633       855.499        12.631         1.186         6.791
  WS02006229WS02006228       987.377      1906.855        23.615         1.976        12.162
  WS02006256WS02006235       248.725       470.484         5.162         0.384         2.561
  WS02006253WS02006251        84.629       170.474         1.749         0.126         0.851
  WS02006252WS02006251       274.405       526.796         5.199         0.357         2.499
  WS02006251WS02006249       351.515       683.065         6.827         0.476         3.296
  WS02006249WS02006248       314.781       609.716         6.120         0.427         2.956
  WS02006248WS02006247       313.395       606.795         6.095         0.425         2.944
  WS02006247WS02006245       313.218       606.521         6.092         0.425         2.943
  WS02006245WS02006243       313.205       606.672         6.097         0.426         2.946
  WS02006243WS02006242       313.011       606.305         6.107         0.427         2.953
  WS02006242WS02006240       311.812       603.944         6.071         0.424         2.934
  WS02006240WS02006239       311.363       602.774         6.071         0.424         2.935
  WS02006239WS02006238       311.140       601.788         6.081         0.426         2.942
  WS02006238WS02006235       310.956       600.992         6.084         0.427         2.945
  WS02006235WS02006234       553.264      1059.949        11.084         0.797         5.421
  WS02006234WS02006232       552.302      1058.121        11.066         0.796         5.413
  WS02006232WS02006231       551.413      1056.449        11.048         0.795         5.404
  WS02006231WS02006230       550.612      1054.979        11.031         0.793         5.396
  WS02006230WS02006229       550.016      1053.884        11.018         0.793         5.390
  WS02006228WS02006109       985.800      1903.926        23.569         1.971        12.137
  WS02006116WS02004401      1003.061      1936.091        24.373         2.064        12.608
  WS02006115WS02006116      1004.538      1938.823        24.422         2.069        12.636
  WS02006113WS02006111       990.943      1911.631        24.252         2.060        12.571
  WS02006112WS02006115      1005.861      1941.195        24.479         2.075        12.669
  WS02006111WS02006112       990.008      1909.771        24.227         2.057        12.557
  WS02006110WS02006113       991.427      1912.397        24.275         2.062        12.584
  WS02006109WS02006110       992.766      1914.670        24.342         2.070        12.624
  WS02004411WS02004412       993.979      1919.280        24.131         2.044        12.480
  WS02004401WS02004402      1001.581      1933.408        24.317         2.059        12.577
  WS02004413WS02003067       991.789      1915.315        24.043         2.034        12.430
  WS02004412WS02004413       993.162      1917.772        24.104         2.041        12.465
  WS02004410WS02004411       994.610      1920.447        24.151         2.045        12.491
  WS02004409WS02004410       995.295      1921.705        24.174         2.048        12.504
  WS02004407WS02004409       995.818      1922.679        24.188         2.049        12.512
  WS02004406WS02004407       995.911      1922.855        24.187         2.049        12.511
  WS02004405WS02004406       998.076      1926.643        24.299         2.061        12.577
  WS02004404WS02004405       999.265      1928.950        24.306         2.060        12.578
  WS02004403WS02004404       998.882      1928.484        24.224         2.050        12.525
  WS02004402WS02004403      1000.132      1930.759        24.269         2.054        12.550
  WS02004139WS02001211      1341.283      2274.605       100.331        12.098        61.417
  WS02004138WS02004139      1347.359      2284.853       100.783        12.152        61.693
  WS02003067WS02003066       991.538      1914.835        24.038         2.034        12.427
  WS02001213WS02003059      1375.836      2328.767       103.927        12.552        63.677
  WS02001212WS02001213      1384.751      2343.648       104.632        12.637        64.111
  WS02001211WS02001212      1386.022      2345.749       104.735        12.650        64.174
  WS02003072WS02003073      2469.261      4405.461       138.043        15.850        82.416
  WS02003069WS02003072      2473.106      4411.899       138.338        15.886        82.597
  WS02003060WS02003069      2475.649      4416.282       138.503        15.905        82.697
  WS02003059WS02003060      1373.345      2324.479       103.762        12.532        63.577
  HS02004901HS02004770        19.400        38.443         0.369         0.028         0.174
  HS02004876HS02004881        64.843       131.159         1.382         0.100         0.674
  HS02004870HS02004876        49.302        99.621         1.094         0.080         0.537
  HS02004842HS02004848         9.279        18.137         0.191         0.013         0.089
  HS02004837HS02004842        13.927        25.528         0.662         0.072         0.384
  HS02004830HS02004837        81.309       145.733         4.858         0.568         2.931
  HS02004824HS02004830        82.101       147.037         4.931         0.577         2.976
  HS02004817HS02004824       118.563       221.805         5.666         0.624         3.333
  HS02004770HS02004777        73.686       147.829         1.507         0.104         0.700
  HS02004799HS02004480       235.092       460.660         5.679         0.484         2.882
  HS02004792HS02004799       214.151       417.352         5.330         0.464         2.722
  HS02004788HS02004792       116.321       227.355         3.333         0.303         1.755
  HS02004785HS02004788        75.105       150.099         1.654         0.123         0.793
  HS02004777HS02004785        74.432       149.019         1.592         0.115         0.755
  HS02004480HS02004478       294.436       579.959         6.704         0.559         3.370
  HS02004479HS02004480        62.986       125.175         1.336         0.113         0.681
  HS02004862HS02004870        37.533        74.852         0.862         0.066         0.425
  HS02004848HS02004852        15.822        31.382         0.320         0.022         0.149
  HS02004856HS02004862        25.852        52.200         0.514         0.035         0.243
  HS02004852HS02004856        15.836        31.405         0.320         0.022         0.149
  HS02004802HS02004478       144.594       276.114         5.947         0.629         3.432
  HS02004478WS02006287       438.256       854.808        12.602         1.183         6.773
  HS02004817HS02004807       117.203       219.661         5.526         0.607         3.245
  HS02004807HS02004802       144.759       276.363         5.979         0.633         3.452
  YS02001759YS02001757       408.521       773.349         7.980         0.559         3.891
  YS02001762YS02001759       254.473       478.636         5.150         0.362         2.527
  YS02001765YS02001762       256.264       483.252         5.199         0.366         2.553
  YS02001770YS02001767       261.887       497.483         5.172         0.354         2.517
  YS02001774YS02001770       481.314       940.812         9.293         0.626         4.499
  YS02001779YS02001774       480.547       939.366         9.358         0.636         4.545
  YS02001649YS02001757       462.779       868.947         9.192         0.629         4.433
  YS02001767YS02001765       258.947       489.654         5.259         0.371         2.584
  YS02006561YS02001783      1263.863      2386.084        26.079         1.927        12.909
  YS02001783YS02001784      1263.812      2386.029        26.075         1.926        12.907
  YS02001784YS02001785      1271.174      2397.841        26.789         2.016        13.353
  YS02001788YS02001790      1271.796      2398.869        26.861         2.025        13.398
  YS02001790YS02001791      1272.806      2400.505        26.960         2.037        13.461
  YS02001791YS02001793      1272.758      2400.431        26.956         2.037        13.458
  YS02001910YS02001907       565.878      1068.485        12.795         0.946         6.463
  YS02001786YS02001788      1271.379      2398.185        26.816         2.019        13.371
  YS02001915YS02001910       565.594      1067.917        12.748         0.940         6.432
  YS02001918YS02001915       279.287       506.501         6.933         0.598         3.646
  YS02001923YS02001920       254.108       463.492         4.910         0.352         2.397
  YS02001926YS02001923       250.976       457.862         4.787         0.340         2.327
  YS02001929YS02001926       248.137       452.897         4.662         0.326         2.255
  YS02001920YS02001918       275.258       498.027         6.843         0.592         3.602
  YS02001629YS02163301        89.711       159.385         1.894         0.125         0.888
  YS02001619YS02001622       259.377       485.229         5.243         0.348         2.461
  YS02001622YS02001625       258.422       483.734         5.219         0.346         2.450
  YS02001625YS02001629        86.748       153.502         1.848         0.120         0.865
  YS02163301YS02001633        94.569       168.916         1.971         0.131         0.927
  YS02163601YS02164001       528.964       976.391        10.163         0.735         4.885
  YS02164001YS02001641       528.859       976.203        10.151         0.733         4.878
  YS02001641YS02001644       529.902       977.955        10.163         0.734         4.883
  YS02001647YS02001649       621.308      1169.684        12.335         0.856         5.904
  YS02006553YS02006556       782.759      1458.835        16.645         1.261         8.338
  YS02006556YS02006558       783.003      1459.294        16.612         1.256         8.316
  YSB6556YSB1171              36.523        72.736         0.719         0.059         0.359
  YS02001907YS02006553       782.724      1458.776        16.672         1.265         8.357
  YS02006558YS02006561      1263.837      2386.017        26.078         1.926        12.908
  YS02001633YS02163601       529.537       977.288        10.140         0.730         4.867
  YS02001644YS02001647       630.148      1186.164        12.474         0.866         5.968
  YS02001745YS02001748       354.035       679.911         6.988         0.437         3.357
  YS02001748YS02001751       353.346       678.746         6.995         0.440         3.365
  YS02001751YS02001754       352.441       677.259         6.982         0.440         3.360
  YS02001754YS02001757       353.267       678.498         7.148         0.462         3.468
  YS02001882YS02001884         3.595         6.363         0.069         0.005         0.034
  YS02001884YS02001887         7.604        13.731         0.144         0.011         0.071
  YS02001890YS02001895       614.890      1175.628        11.363         0.859         5.544
  YS02001895YS02001898       614.808      1175.575        11.358         0.858         5.541
  YS02001898YS02001901       614.651      1175.291        11.354         0.858         5.539
  YS02001901YS02001904       614.607      1175.264        11.365         0.859         5.547
  YS02001904YS02001907       614.951      1175.797        11.423         0.867         5.584
  YS02001887YS02001890       669.282      1284.412        12.356         0.936         6.032
  YS02001652YS02001649       312.558       593.540         6.204         0.449         2.915
  YS02001655YS02001652       313.115       594.458         6.219         0.450         2.923
  YS02001658YS02001655       312.634       593.717         6.133         0.438         2.867
  YS02001661YS02001658       313.163       594.618         6.145         0.439         2.873
  YS02001664YS02001661       325.707       614.536         6.444         0.459         3.009
  YSB1154YSB6556              36.101        72.068         0.672         0.053         0.330
  YSB1174YSB1171              24.948        50.013         0.489         0.039         0.242
  YSB1171HS02004479           62.905       125.025         1.341         0.114         0.685
  HS02004881HS02006253        73.203       148.566         1.535         0.110         0.748
  YS02001793JiankangQianchi      1272.379      2399.894        26.876         2.026        13.407
  YS02001757CaochengTiaoxuchi       663.195      1259.810        12.833         0.880         6.188
  WSF200WS02003060           991.642      1914.998        24.051         2.036        12.436
  1                         2473.013      4411.010       138.515        15.911        82.717
  CC-Pump-1                  220.770       423.253         4.192         0.288         2.015
  CC-Pump-2                   53.339       102.938         1.000         0.069         0.480
  JK-Pump-1                  337.297       643.600         6.876         0.508         3.398
  JK-Pump-2                  742.284      1423.176        14.911         1.093         7.343
  XR-Pump-1                  363.754       614.360        27.751         3.357        17.018
  XR-Pump-2                  329.144       558.950        24.448         2.944        14.956
  XR-Pump-3                  329.144       558.950        24.448         2.944        14.956
  XR-Pump-4                  329.144       558.950        24.448         2.944        14.956
  

  Analysis begun on:  Thu Jul 15 12:44:54 2021
  Analysis ended on:  Thu Jul 15 12:44:57 2021
  Total elapsed time: 00:00:03