
  EPA STORM WATER MANAGEMENT MODEL - VERSION 5.1 (Build 5.3.0.dev0)
  --------------------------------------------------------------

  WARNING 04: minimum elevation drop used for Conduit WS02004404WS02004405
  WARNING 03: negative offset ignored for Link YS02001904YS02001907
  
  *********************************************************
  NOTE: The summary statistics displayed in this report are
  based on results found at every computational time step,  
  not just on results from each reporting time step.
  *********************************************************
  
  ****************
  Analysis Options
  ****************
  Flow Units ............... LPS
  Process Models:
    Rainfall/Runoff ........ YES
    RDII ................... NO
    Snowmelt ............... NO
    Groundwater ............ NO
    Flow Routing ........... YES
    Ponding Allowed ........ NO
    Water Quality .......... YES
  Infiltration Method ...... HORTON
  Flow Routing Method ...... DYNWAVE
  Surcharge Method ......... EXTRAN
  Starting Date ............ 08/28/2015 08:00:00
  Ending Date .............. 08/28/2015 15:50:00
  Antecedent Dry Days ...... 8.0
  Report Time Step ......... 00:01:00
  Wet Time Step ............ 00:01:00
  Dry Time Step ............ 00:01:00
  Routing Time Step ........ 5.00 sec
  Variable Time Step ....... YES
  Maximum Trials ........... 8
  Number of Threads ........ 4
  Head Tolerance ........... 0.001500 m
  
  
  **************************        Volume         Depth
  Runoff Quantity Continuity     hectare-m            mm
  **************************     ---------       -------
  Total Precipitation ......         7.641        16.729
  Evaporation Loss .........         0.000         0.000
  Infiltration Loss ........         1.184         2.592
  Surface Runoff ...........         5.481        12.000
  Final Storage ............         0.977         2.139
  Continuity Error (%) .....        -0.016
  
  
  **************************           COD            SS            TN            TP         NH4-N
  Runoff Quality Continuity             kg            kg            kg            kg            kg
  **************************    ----------    ----------    ----------    ----------    ----------
  Initial Buildup ..........     41378.656     70582.865      1804.177       168.684      1032.807
  Surface Buildup ..........        30.344        63.217         2.449         0.220         1.402
  Wet Deposition ...........         0.000         0.000         0.000         0.000         0.000
  Sweeping Removal .........         0.000         0.000         0.000         0.000         0.000
  Infiltration Loss ........       127.934       247.015         2.452         0.174         1.174
  BMP Removal ..............         0.000         0.000         0.000         0.000         0.000
  Surface Runoff ...........      5553.100     10632.121       107.101         7.411        51.076
  Remaining Buildup ........     35725.917     59762.998      1697.031       161.316       981.940
  Continuity Error (%) .....         0.005         0.006         0.002         0.002         0.002
  
  
  **************************        Volume        Volume
  Flow Routing Continuity        hectare-m      10^6 ltr
  **************************     ---------     ---------
  Dry Weather Inflow .......         0.616         6.165
  Wet Weather Inflow .......         5.479        54.794
  Groundwater Inflow .......         0.000         0.000
  RDII Inflow ..............         0.000         0.000
  External Inflow ..........         0.102         1.024
  External Outflow .........         1.975        19.747
  Flooding Loss ............         3.761        37.612
  Evaporation Loss .........         0.000         0.000
  Exfiltration Loss ........         0.000         0.000
  Initial Stored Volume ....         0.076         0.761
  Final Stored Volume ......         0.649         6.485
  Continuity Error (%) .....        -1.756
  
  
  **************************           COD            SS            TN            TP         NH4-N
  Quality Routing Continuity            kg            kg            kg            kg            kg
  **************************    ----------    ----------    ----------    ----------    ----------
  Dry Weather Inflow .......      1541.201      2465.922       147.955        18.494        92.472
  Wet Weather Inflow .......      5552.227     10630.599       107.082         7.410        51.067
  Groundwater Inflow .......         0.000         0.000         0.000         0.000         0.000
  RDII Inflow ..............         0.000         0.000         0.000         0.000         0.000
  External Inflow ..........       183.418       293.469        17.608         2.201        11.005
  External Outflow .........      2464.294      4394.307       138.465        15.916        82.712
  Flooding Loss ............      4079.064      7700.298       104.910         9.166        55.140
  Exfiltration Loss ........         0.000         0.000         0.000         0.000         0.000
  Mass Reacted .............         0.000         0.000         0.000         0.000         0.000
  Initial Stored Mass ......         0.000         0.000         0.000         0.000         0.000
  Final Stored Mass ........       629.252      1123.980        25.767         2.699        14.779
  Continuity Error (%) .....         1.432         1.280         1.285         1.157         1.239
  
  
  *************************
  Highest Continuity Errors
  *************************
  Node HS02004842 (10.96%)
  Node YS02001884 (9.66%)
  Node JK-storage (-8.91%)
  Node HS02004817 (2.13%)
  Node YSB1171 (1.97%)
  
  
  ***************************
  Time-Step Critical Elements
  ***************************
  Link WS02006252WS02006251 (61.58%)
  Link WS02006280WS02006229 (10.82%)
  Link WS02006238WS02006235 (5.57%)
  Link YS02006556YS02006558 (4.80%)
  Link YS02001793JiankangQianchi (4.70%)
  
  
  ********************************
  Highest Flow Instability Indexes
  ********************************
  Link WS02006113WS02006111 (44)
  Link YS02163301YS02001633 (31)
  Link YS02001629YS02163301 (30)
  Link YS02001619YS02001622 (30)
  Link YS02163601YS02164001 (30)
  
  
  *************************
  Routing Time Step Summary
  *************************
  Minimum Time Step           :     0.06 sec
  Average Time Step           :     1.30 sec
  Maximum Time Step           :     5.00 sec
  Percent in Steady State     :    -0.00
  Average Iterations per Step :     3.69
  Percent Not Converging      :    11.65
  
  
  ***************************
  Subcatchment Runoff Summary
  ***************************
  
  ------------------------------------------------------------------------------------------------------------------------------
                            Total      Total      Total      Total     Imperv       Perv      Total       Total     Peak  Runoff
                           Precip      Runon       Evap      Infil     Runoff     Runoff     Runoff      Runoff   Runoff   Coeff
  Subcatchment                 mm         mm         mm         mm         mm         mm         mm    10^6 ltr      LPS
  ------------------------------------------------------------------------------------------------------------------------------
  sub0                      16.73       0.00       0.00       0.71      15.51       0.47      15.98        0.01     3.87   0.955
  sub1                      16.73       0.00       0.00       1.18      14.80       0.66      15.46        0.10    26.74   0.924
  sub2                      16.73       0.00       0.00       4.79      10.46       1.40      11.85        0.11    25.81   0.708
  sub3                      16.73       0.00       0.00       5.01      10.42       1.18      11.60        0.26    56.97   0.693
  sub4                      16.73       0.00       0.00       1.28      14.64       0.56      15.20        0.32    66.74   0.909
  sub5                      16.73       0.00       0.00       0.73      15.46       0.44      15.91        0.18    46.91   0.951
  sub7                      16.73       0.00       0.00       0.93      15.16       0.58      15.74        0.05    14.85   0.941
  sub8                      16.73       0.00       0.00       0.94      15.15       0.57      15.72        0.10    27.42   0.940
  sub9                      16.73       0.00       0.00       0.94      15.15       0.57      15.72        0.08    20.52   0.940
  sub10                     16.73       0.00       0.00       0.83      15.30       0.50      15.81        0.17    46.04   0.945
  sub11                     16.73       0.00       0.00       0.83      15.32       0.51      15.83        0.18    50.62   0.947
  sub12                     16.73       0.00       0.00       1.34      14.51       0.83      15.34        0.13    39.22   0.917
  sub14                     16.73       0.00       0.00       0.94      15.15       0.57      15.72        0.15    40.40   0.939
  sub15                     16.73       0.00       0.00       3.54      11.65       1.48      13.13        0.23    57.86   0.785
  sub16                     16.73       0.00       0.00       3.72      11.17       1.80      12.97        0.14    37.34   0.776
  sub17                     16.73       0.00       0.00       3.62      11.33       1.73      13.07        0.11    30.57   0.781
  sub22                     16.73       0.00       0.00       5.27       9.49       1.92      11.42        0.72   183.11   0.683
  sub23                     16.73       0.00       0.00       4.37      10.50       1.82      12.32        0.59   153.57   0.736
  sub60                     16.73       0.00       0.00       1.74      12.78       0.27      13.05        3.96   446.24   0.780
  sub61                     16.73       0.00       0.00       2.46      12.72       0.38      13.11        4.04   542.53   0.784
  sub62                     16.73       0.00       0.00       1.06      13.91       0.27      14.19        4.36   558.01   0.848
  sub63                     16.73       0.00       0.00       4.39      11.06       0.46      11.52        3.49   496.40   0.689
  sub64                     16.73       0.00       0.00       2.23      12.28       0.28      12.56        3.82   424.95   0.751
  sub65                     16.73       0.00       0.00       1.91      12.51       0.27      12.77        3.93   431.32   0.764
  sub66                     16.73       0.00       0.00       4.54      10.46       0.31      10.78        3.31   388.44   0.644
  sub67                     16.73       0.00       0.00       1.01      14.45       0.32      14.78        4.56   675.76   0.883
  sub68                     16.73       0.00       0.00       1.95      13.33       0.39      13.71        4.22   589.75   0.820
  sub69                     16.73       0.00       0.00       2.00      13.62       0.51      14.12        3.30   542.07   0.844
  sub70                     16.73      14.42       0.00       8.47      19.01       2.12      21.13        4.84   534.50   0.678
  sub71                     16.73       0.00       0.00       1.08      13.65       0.25      13.90        3.28   394.68   0.831
  sub72                     16.73       0.00       0.00       1.02      11.50       0.15      11.65        2.37   206.66   0.697
  1                         16.73      20.58       0.00       1.37      22.38       7.20      29.58        6.95   612.18   0.793
  2                         16.73       0.00       0.00       3.02       4.04       3.18       7.22        2.89   331.58   0.431
  
  
  ****************************
  Subcatchment Washoff Summary
  ****************************
  
  ------------------------------------------------------------------------------------------
                                 COD            SS            TN            TP         NH4-N
  Subcatchment                    kg            kg            kg            kg            kg
  ------------------------------------------------------------------------------------------
  sub0                         3.641         7.161         0.064         0.005         0.031
  sub1                        15.670        31.767         0.296         0.021         0.143
  sub2                        10.304        20.454         0.214         0.015         0.099
  sub3                        25.293        49.815         0.517         0.036         0.240
  sub4                        36.168        74.260         0.714         0.044         0.344
  sub5                        35.763        71.366         0.649         0.050         0.316
  sub7                         7.894        16.212         0.150         0.010         0.073
  sub8                        11.755        24.726         0.234         0.014         0.113
  sub9                        10.113        20.966         0.196         0.013         0.095
  sub10                       29.347        59.341         0.545         0.040         0.265
  sub11                       28.395        58.052         0.536         0.037         0.260
  sub12                       24.463        49.072         0.450         0.034         0.218
  sub14                       21.697        44.543         0.414         0.028         0.200
  sub15                       29.696        58.821         0.572         0.042         0.270
  sub16                       19.246        38.050         0.367         0.028         0.174
  sub17                       17.687        34.653         0.330         0.026         0.156
  sub22                       95.915       186.896         1.820         0.139         0.857
  sub23                       54.382       109.539         1.141         0.076         0.527
  sub60                      353.947       679.509         6.988         0.437         3.357
  sub61                      439.695       840.113         8.188         0.570         3.952
  sub62                      449.790       873.119         8.744         0.564         4.209
  sub63                      328.186       618.356         6.505         0.463         3.037
  sub64                      450.924       835.563         8.299         0.611         3.976
  sub65                      460.537       856.688         8.527         0.617         4.090
  sub66                      259.427       485.147         5.248         0.348         2.463
  sub67                      667.181      1281.068        12.075         0.900         5.853
  sub68                      479.473       924.467         9.153         0.628         4.389
  sub69                      429.286       835.450         8.068         0.576         3.873
  sub70                      758.301      1478.311        15.194         1.074         7.173
  sub71                      296.268       580.620         6.027         0.356         2.890
  sub72                      247.759       452.374         4.612         0.320         2.223
  1                          576.917      1130.968        11.723         0.829         5.484
  2                           65.566       118.435         1.802         0.109         0.773
  ------------------------------------------------------------------------------------------
  System                    6740.687     12945.882       130.363         9.060        62.122
  
  
  ******************
  Node Depth Summary
  ******************
  
  ---------------------------------------------------------------------------------
                                 Average  Maximum  Maximum  Time of Max    Reported
                                   Depth    Depth      HGL   Occurrence   Max Depth
  Node                 Type       Meters   Meters   Meters  days hr:min      Meters
  ---------------------------------------------------------------------------------
  WS02001211           JUNCTION     0.77     0.85     5.69     0  02:04        0.85
  WS02001212           JUNCTION     0.48     0.58     5.64     0  02:05        0.58
  WS02001213           JUNCTION     0.71     0.86     5.62     0  02:03        0.86
  WS02003069           JUNCTION     0.51     0.72     5.31     0  02:03        0.72
  WS02003072           JUNCTION     0.57     0.76     5.14     0  02:04        0.76
  WS02003073           JUNCTION     0.35     0.48     4.55     0  02:04        0.48
  WS02003060           JUNCTION     0.45     0.64     5.57     0  02:03        0.64
  WS02003066           JUNCTION     0.24     0.39     5.94     0  01:58        0.39
  WS02003059           JUNCTION     0.76     0.91     5.60     0  02:03        0.91
  WS02003067           JUNCTION     0.58     0.83     6.15     0  01:57        0.83
  WS02004401           JUNCTION     0.71     1.31     7.31     0  01:55        1.25
  WS02004402           JUNCTION     0.74     1.30     7.26     0  01:55        1.23
  WS02004403           JUNCTION     0.75     1.27     7.20     0  01:55        1.20
  WS02004404           JUNCTION     0.83     1.31     7.16     0  01:55        1.24
  WS02004406           JUNCTION     0.82     1.20     7.03     0  01:55        1.17
  WS02004409           JUNCTION     0.52     0.98     6.75     0  01:57        0.98
  WS02004410           JUNCTION     0.53     0.96     6.68     0  01:57        0.96
  WS02004411           JUNCTION     0.54     0.94     6.62     0  01:58        0.94
  WS02004412           JUNCTION     0.56     0.91     6.55     0  01:57        0.91
  WS02004413           JUNCTION     0.71     1.03     6.50     0  01:57        1.03
  WS02004405           JUNCTION     0.82     1.28     7.13     0  01:55        1.22
  WS02006109           JUNCTION     0.81     1.76     8.37     0  01:55        1.75
  WS02006110           JUNCTION     0.78     1.54     8.13     0  01:55        1.52
  WS02006111           JUNCTION     0.26     1.04     7.74     0  01:55        0.94
  WS02006112           JUNCTION     0.89     1.65     7.54     0  01:55        1.60
  WS02006113           JUNCTION     0.36     1.04     7.93     0  01:55        0.99
  WS02006115           JUNCTION     0.61     1.31     7.45     0  01:55        1.25
  WS02006116           JUNCTION     0.69     1.35     7.39     0  01:55        1.28
  WS02006230           JUNCTION     0.81     1.98     8.72     0  01:56        1.98
  WS02006231           JUNCTION     0.57     1.61     8.73     0  01:56        1.61
  WS02006232           JUNCTION     0.70     1.70     8.74     0  01:56        1.70
  WS02006234           JUNCTION     0.63     1.59     8.75     0  01:56        1.59
  WS02006235           JUNCTION     0.66     1.60     8.76     0  01:56        1.59
  WS02006238           JUNCTION     0.69     1.61     8.76     0  01:56        1.60
  WS02006240           JUNCTION     0.58     1.44     8.74     0  01:56        1.44
  WS02006242           JUNCTION     0.63     1.46     8.73     0  01:56        1.45
  WS02006243           JUNCTION     0.51     1.30     8.72     0  01:56        1.29
  WS02006245           JUNCTION     0.48     1.23     8.71     0  03:51        1.22
  WS02006247           JUNCTION     0.49     1.22     8.72     0  03:51        1.19
  WS02006248           JUNCTION     0.43     1.10     8.69     0  01:53        1.10
  WS02006249           JUNCTION     0.45     1.09     8.69     0  01:53        1.09
  WS02006239           JUNCTION     0.64     1.54     8.75     0  01:56        1.53
  WS02006251           JUNCTION     0.43     1.34     9.01     0  01:54        1.14
  WS02006252           JUNCTION     0.27     0.85     9.09     0  07:09        0.70
  WS02006253           JUNCTION     0.46     1.52     9.17     0  01:54        1.17
  WS02006256           JUNCTION     1.71     2.35     9.28     0  00:00        2.35
  WS02004138           JUNCTION     0.19     0.20     7.45     0  00:00        0.19
  WS02004139           JUNCTION     0.71     0.79     5.70     0  02:05        0.79
  WS02004407           JUNCTION     0.23     0.40     6.72     0  01:56        0.40
  WS02006228           JUNCTION     0.82     1.94     8.59     0  01:55        1.93
  WS02006229           JUNCTION     0.81     2.02     8.71     0  01:56        2.01
  WS02006280           JUNCTION     0.08     0.34     8.61     0  01:55        0.32
  WS02006284           JUNCTION     0.38     0.66     9.06     0  01:54        0.66
  WS02006287           JUNCTION     0.11     0.40     9.36     0  01:54        0.40
  WSF200               JUNCTION     0.23     0.44     5.67     0  01:58        0.44
  HS02004901           JUNCTION     0.14     0.38    10.21     0  01:53        0.38
  HS02004881           JUNCTION     0.01     0.06     9.08     0  01:54        0.05
  HS02004876           JUNCTION     0.05     0.17     9.20     0  01:54        0.17
  HS02004870           JUNCTION     0.02     0.10     9.38     0  01:54        0.10
  HS02004862           JUNCTION     0.02     0.11     9.50     0  01:55        0.11
  HS02004856           JUNCTION     0.08     0.15     9.58     0  01:54        0.15
  HS02004852           JUNCTION     0.01     0.08     9.59     0  01:55        0.08
  HS02004848           JUNCTION     0.01     0.07     9.67     0  01:54        0.07
  HS02004842           JUNCTION     0.34     0.40     9.67     0  01:54        0.40
  HS02004837           JUNCTION     0.03     0.09     9.67     0  01:54        0.09
  HS02004830           JUNCTION     0.04     0.11     9.58     0  01:55        0.11
  HS02004824           JUNCTION     0.03     0.15     9.55     0  01:54        0.15
  HS02004817           JUNCTION     0.46     0.71     9.56     0  01:54        0.71
  HS02004807           JUNCTION     0.14     0.38     9.55     0  01:55        0.38
  HS02004802           JUNCTION     0.18     0.41     9.54     0  01:55        0.41
  HS02004799           JUNCTION     0.14     0.48     9.69     0  01:53        0.48
  HS02004792           JUNCTION     0.04     0.22     9.75     0  01:53        0.22
  HS02004788           JUNCTION     0.03     0.16    10.06     0  01:54        0.16
  HS02004785           JUNCTION     0.06     0.25    10.15     0  01:53        0.25
  HS02004777           JUNCTION     0.16     0.40    10.20     0  01:53        0.40
  HS02004770           JUNCTION     0.13     0.37    10.21     0  01:53        0.37
  HS02004480           JUNCTION     0.10     0.39     9.64     0  01:53        0.39
  HS02004479           JUNCTION     0.13     0.43     9.64     0  01:53        0.43
  HS02004478           JUNCTION     0.07     0.29     9.52     0  01:54        0.29
  YS02001745           JUNCTION     0.79     0.97     8.49     0  02:44        0.97
  YS02001748           JUNCTION     1.19     1.41     8.48     0  02:47        1.40
  YS02001751           JUNCTION     1.38     1.60     8.48     0  02:30        1.59
  YS02001754           JUNCTION     1.63     1.86     8.46     0  02:50        1.85
  YS02001762           JUNCTION     1.83     2.05     8.45     0  02:50        2.05
  YS02001765           JUNCTION     1.78     2.00     8.45     0  02:50        1.99
  YS02001767           JUNCTION     1.74     1.95     8.44     0  02:30        1.95
  YS02001770           JUNCTION     1.74     1.94     8.43     0  02:50        1.94
  YS02001774           JUNCTION     1.80     1.99     8.41     0  02:50        1.98
  YS02001779           JUNCTION     1.54     1.68     8.37     0  01:47        1.68
  YS02001882           JUNCTION     0.66     1.67     8.39     0  01:50        1.63
  YS02001884           JUNCTION     0.76     1.77     8.38     0  01:50        1.73
  YS02001759           JUNCTION     1.86     2.09     8.46     0  02:50        2.09
  YS02001887           JUNCTION     0.83     1.82     8.36     0  01:50        1.81
  YS02001890           JUNCTION     0.86     1.81     8.32     0  01:50        1.81
  YS02001898           JUNCTION     0.63     1.57     8.30     0  01:51        1.56
  YS02001901           JUNCTION     0.75     1.68     8.29     0  01:51        1.67
  YS02001904           JUNCTION     0.72     1.64     8.27     0  01:51        1.63
  YS02001907           JUNCTION     1.05     1.96     8.25     0  01:51        1.96
  YS02001910           JUNCTION     0.84     1.94     8.44     0  01:51        1.79
  YS02001915           JUNCTION     0.64     1.84     8.56     0  01:51        1.62
  YS02001918           JUNCTION     0.40     1.70     8.77     0  01:51        1.35
  YS02001619           JUNCTION     1.33     1.57     8.50     0  01:45        1.48
  YS02001629           JUNCTION     1.68     1.85     8.40     0  07:22        1.84
  YS02001641           JUNCTION     1.78     1.94     8.38     0  07:22        1.93
  YS02001644           JUNCTION     1.78     1.92     8.35     0  01:48        1.92
  YS02001652           JUNCTION     1.64     1.90     8.50     0  01:58        1.90
  YS02001655           JUNCTION     1.40     1.71     8.56     0  01:52        1.70
  YS02001920           JUNCTION     0.50     1.89     8.90     0  01:51        1.45
  YS02001923           JUNCTION     0.32     1.71     8.97     0  01:51        1.24
  YS02001926           JUNCTION     0.36     1.90     9.35     0  01:51        1.13
  YS02001929           JUNCTION     0.22     0.97     8.66     0  01:52        0.97
  YS02001658           JUNCTION     1.13     1.49     8.63     0  01:52        1.43
  YS02001661           JUNCTION     0.89     1.39     8.80     0  01:57        1.10
  YS02001664           JUNCTION     0.41     0.56     8.49     0  01:52        0.54
  YS02001622           JUNCTION     1.35     1.57     8.47     0  01:45        1.50
  YS02001633           JUNCTION     1.77     1.95     8.40     0  02:14        1.94
  YS02001649           JUNCTION     1.83     2.05     8.44     0  02:30        2.05
  YS02001757           JUNCTION     1.96     2.20     8.46     0  02:47        2.19
  YS02001895           JUNCTION     0.62     1.57     8.31     0  01:51        1.56
  YS02001625           JUNCTION     1.63     1.78     8.38     0  01:45        1.78
  YS02163301           JUNCTION     1.71     1.88     8.40     0  07:22        1.88
  YS02163601           JUNCTION     1.82     2.00     8.40     0  07:22        1.98
  YS02164001           JUNCTION     1.76     1.93     8.39     0  07:22        1.91
  YS02001647           JUNCTION     1.62     1.79     8.40     0  02:50        1.79
  YSB1154              JUNCTION     0.27     0.58     9.64     0  01:53        0.58
  YSB6556              JUNCTION     0.17     0.47     9.64     0  01:53        0.47
  YSB1174              JUNCTION     0.23     0.53     9.64     0  01:53        0.53
  YSB1171              JUNCTION     0.43     0.74     9.64     0  01:53        0.74
  YS02006553           JUNCTION     1.05     1.97     8.25     0  02:07        1.97
  YS02006561           JUNCTION     0.39     1.10     7.76     0  01:56        1.09
  YS02006556           JUNCTION     1.02     1.93     8.25     0  02:04        1.93
  YS02006558           JUNCTION     1.06     1.98     8.25     0  02:14        1.97
  YS02001783           JUNCTION     0.62     1.63     7.77     0  01:44        1.47
  YS02001784           JUNCTION     0.63     1.70     7.77     0  01:44        1.42
  YS02001786           JUNCTION     0.56     1.52     7.55     0  01:44        1.26
  YS02001788           JUNCTION     0.48     1.45     7.43     0  01:44        1.12
  YS02001790           JUNCTION     0.60     1.96     7.60     0  01:44        1.30
  YS02001791           JUNCTION     0.56     1.82     7.29     0  01:44        1.27
  YS02001793           JUNCTION     0.79     2.53     7.36     0  01:42        1.80
  WSC                  OUTFALL      0.35     0.48     1.15     0  02:05        0.48
  JK-storage           STORAGE      3.09     5.80     6.60     0  01:44        5.80
  CC-storage           STORAGE      1.21     1.46     8.46     0  02:42        1.46
  XR-storage           STORAGE      7.11     7.72     5.72     0  02:02        7.72
  
  
  *******************
  Node Inflow Summary
  *******************
  
  -------------------------------------------------------------------------------------------------
                                  Maximum  Maximum                  Lateral       Total        Flow
                                  Lateral    Total  Time of Max      Inflow      Inflow     Balance
                                   Inflow   Inflow   Occurrence      Volume      Volume       Error
  Node                 Type           LPS      LPS  days hr:min    10^6 ltr    10^6 ltr     Percent
  -------------------------------------------------------------------------------------------------
  WS02001211           JUNCTION      7.35   390.36     0  03:16       0.207        10.1       0.391
  WS02001212           JUNCTION      0.00   393.13     0  03:16           0        10.1       0.209
  WS02001213           JUNCTION      0.00   395.68     0  03:15           0        10.1       0.287
  WS02003069           JUNCTION      0.32  1338.82     0  02:03     0.00902        19.8       0.141
  WS02003072           JUNCTION      0.00  1338.79     0  02:04           0        19.8       0.177
  WS02003073           JUNCTION      1.82  1340.90     0  02:04      0.0514        19.8       0.199
  WS02003060           JUNCTION     16.53  1338.18     0  02:02       0.466        19.8       0.134
  WS02003066           JUNCTION      0.00   954.53     0  01:58           0        9.34       0.031
  WS02003059           JUNCTION      0.00   399.27     0  03:15           0        10.1       0.375
  WS02003067           JUNCTION      0.00   953.85     0  01:58           0        9.35       0.070
  WS02004401           JUNCTION      0.00   968.23     0  01:56           0        9.51       0.164
  WS02004402           JUNCTION      0.00   968.53     0  01:56           0         9.5       0.161
  WS02004403           JUNCTION      0.00   968.62     0  01:56           0        9.48       0.149
  WS02004404           JUNCTION      0.16   969.44     0  01:56     0.00457        9.47       0.117
  WS02004406           JUNCTION      0.00   970.80     0  01:56           0        9.45       0.284
  WS02004409           JUNCTION      0.00   968.68     0  01:56           0        9.41       0.098
  WS02004410           JUNCTION      0.00   956.91     0  01:57           0         9.4       0.118
  WS02004411           JUNCTION      0.00   951.75     0  01:58           0        9.39       0.126
  WS02004412           JUNCTION      0.00   953.57     0  01:58           0        9.38       0.145
  WS02004413           JUNCTION      0.00   953.69     0  01:58           0        9.37       0.232
  WS02004405           JUNCTION      0.04   971.09     0  01:56     0.00107        9.46       0.179
  WS02006109           JUNCTION      1.23   938.79     0  01:56      0.0347        9.49       0.185
  WS02006110           JUNCTION      0.00   938.67     0  01:56           0        9.48       0.172
  WS02006111           JUNCTION      0.00   937.79     0  01:56           0        9.45       0.028
  WS02006112           JUNCTION     30.57   966.47     0  01:56       0.112        9.56       0.228
  WS02006113           JUNCTION      0.00   938.50     0  01:56           0        9.46       0.081
  WS02006115           JUNCTION      0.00   966.91     0  01:56           0        9.54       0.142
  WS02006116           JUNCTION      0.00   967.78     0  01:56           0        9.53       0.144
  WS02006230           JUNCTION     10.28   533.47     0  07:10        0.29         6.4       0.180
  WS02006231           JUNCTION      0.00   522.96     0  07:11           0        6.12       0.105
  WS02006232           JUNCTION      0.00   522.93     0  07:11           0        6.12       0.251
  WS02006234           JUNCTION      0.00   522.80     0  07:11           0        6.12       0.067
  WS02006235           JUNCTION      0.00   523.58     0  07:10           0         6.2       0.171
  WS02006238           JUNCTION      0.00   327.99     0  07:10           0         2.8       0.193
  WS02006240           JUNCTION      0.00   327.63     0  07:11           0        2.76       0.346
  WS02006242           JUNCTION      0.00   327.65     0  07:10           0        2.76       0.471
  WS02006243           JUNCTION      0.00   327.67     0  07:10           0        2.75       0.195
  WS02006245           JUNCTION      0.00   330.60     0  05:00           0        2.75       0.364
  WS02006247           JUNCTION      0.00   357.02     0  05:01           0        2.75       0.251
  WS02006248           JUNCTION      0.00   371.97     0  05:01           0        2.76       0.060
  WS02006249           JUNCTION      0.00   451.60     0  03:00           0        2.95       0.396
  WS02006239           JUNCTION      0.00   327.98     0  07:10           0        2.78       0.156
  WS02006251           JUNCTION      0.08   450.66     0  03:00     0.00217        3.01       0.256
  WS02006252           JUNCTION      0.00   400.00     0  05:00           0        2.34       0.021
  WS02006253           JUNCTION      3.87   193.14     0  01:54      0.0129       0.664       0.513
  WS02006256           JUNCTION      0.00   983.00     0  00:00           0        11.4      -0.013
  WS02004138           JUNCTION      0.00   380.00     0  00:00           0        9.98       0.064
  WS02004139           JUNCTION      0.32   396.51     0  00:00     0.00905        9.98       0.447
  WS02004407           JUNCTION      0.00   971.46     0  01:56           0        9.42       0.046
  WS02006228           JUNCTION      0.00   937.40     0  01:56           0        9.47       0.141
  WS02006229           JUNCTION      0.00   991.31     0  01:55           0        9.49       0.137
  WS02006280           JUNCTION      0.00   736.05     0  01:54           0        3.11       0.011
  WS02006284           JUNCTION      0.10   735.80     0  01:54      0.0027        3.11       0.019
  WS02006287           JUNCTION      0.00   735.61     0  01:54           0        3.11       0.023
  WSF200               JUNCTION      0.00   955.05     0  01:58           0        9.34       0.022
  HS02004901           JUNCTION     37.34    37.34     0  01:51       0.136       0.136       1.311
  HS02004881           JUNCTION     14.85   153.29     0  01:54       0.053       0.601       0.086
  HS02004876           JUNCTION     26.74   139.06     0  01:54       0.103       0.549       0.100
  HS02004870           JUNCTION     27.42   112.65     0  01:54         0.1       0.446       0.025
  HS02004862           JUNCTION     26.01    86.18     0  01:54       0.116       0.346       0.050
  HS02004856           JUNCTION     20.52    60.23     0  01:54      0.0756       0.231       0.629
  HS02004852           JUNCTION      0.00    40.37     0  01:54           0       0.155       0.036
  HS02004848           JUNCTION     56.97    56.97     0  01:56       0.261       0.261       0.018
  HS02004842           JUNCTION      0.00    18.18     0  02:06           0       0.119      12.305
  HS02004837           JUNCTION     52.39    67.87     0  01:54       0.353       0.459       0.177
  HS02004830           JUNCTION      0.15    67.98     0  01:54     0.00423       0.449       0.275
  HS02004824           JUNCTION     66.79   134.68     0  01:56       0.318       0.767       0.071
  HS02004817           JUNCTION      0.60   136.93     0  01:57      0.0169       0.783       2.174
  HS02004807           JUNCTION     50.62   184.13     0  01:55       0.184       0.952       0.461
  HS02004802           JUNCTION      0.00   183.90     0  01:56           0        0.95       0.414
  HS02004799           JUNCTION     40.40   470.74     0  01:53        0.15        1.87       0.159
  HS02004792           JUNCTION    183.39   430.97     0  01:53       0.729        1.72       0.024
  HS02004788           JUNCTION     59.53   248.79     0  01:53       0.273       0.991       0.039
  HS02004785           JUNCTION      0.15   189.55     0  01:53     0.00423        0.72       0.070
  HS02004777           JUNCTION      0.03   189.70     0  01:52    0.000846        0.72       0.728
  HS02004770           JUNCTION    153.57   190.37     0  01:52       0.587       0.722       0.429
  HS02004480           JUNCTION      0.00   554.33     0  01:53           0        2.18       0.044
  HS02004479           JUNCTION      0.00    83.75     0  01:53           0       0.323       0.229
  HS02004478           JUNCTION      0.00   735.56     0  01:54           0        3.11       0.010
  YS02001745           JUNCTION    446.25   446.25     0  02:16        3.95        3.95       0.287
  YS02001748           JUNCTION      0.04   449.11     0  02:16     0.00127        3.94       0.579
  YS02001751           JUNCTION      0.01   448.94     0  02:15     0.00031        3.92       0.613
  YS02001754           JUNCTION      0.26   449.48     0  02:15     0.00733        3.91       0.630
  YS02001762           JUNCTION      0.00   432.02     0  01:54           0        2.48       0.853
  YS02001765           JUNCTION      0.00   432.11     0  01:55           0        2.48       0.984
  YS02001767           JUNCTION      0.54   432.82     0  01:55      0.0151        2.51       1.441
  YS02001770           JUNCTION    558.16   766.11     0  02:44        4.36        5.63       0.557
  YS02001774           JUNCTION      0.00   766.14     0  02:44           0        4.38       0.573
  YS02001779           JUNCTION      0.01   766.16     0  02:44    0.000141        4.35       0.355
  YS02001882           JUNCTION      0.00    56.59     0  01:48           0      0.0217      10.314
  YS02001884           JUNCTION      0.00    65.66     0  01:46           0      0.0584      10.689
  YS02001759           JUNCTION    542.57   878.91     0  01:56        4.04        5.23       0.442
  YS02001887           JUNCTION    676.21   677.08     0  02:13        4.57         4.6       0.171
  YS02001890           JUNCTION      0.00   677.22     0  02:13           0        4.56       0.193
  YS02001898           JUNCTION      0.00   521.67     0  01:51           0        4.27       0.051
  YS02001901           JUNCTION      0.00   522.22     0  01:51           0        4.27       0.159
  YS02001904           JUNCTION      0.00   521.35     0  01:51           0        4.27       0.130
  YS02001907           JUNCTION      0.00  1166.91     0  01:52           0        9.99       0.234
  YS02001910           JUNCTION      0.00   652.78     0  01:52           0        5.74       0.193
  YS02001915           JUNCTION    394.70   652.43     0  01:52        3.28        5.79       0.099
  YS02001918           JUNCTION      0.00   371.39     0  01:52           0        2.54       0.061
  YS02001619           JUNCTION    388.44   388.44     0  02:16         3.3         3.3       0.371
  YS02001629           JUNCTION      0.00   221.42     0  01:48           0        1.43       2.052
  YS02001641           JUNCTION      0.00   455.84     0  01:48           0        5.09       0.415
  YS02001644           JUNCTION    424.99  1610.85     0  02:40        3.82        14.9       0.178
  YS02001652           JUNCTION      0.00   519.29     0  02:09           0        3.43       0.673
  YS02001655           JUNCTION      0.15   518.61     0  02:12     0.00434        3.46       0.729
  YS02001920           JUNCTION      2.87   371.02     0  01:52      0.0809        2.52       0.116
  YS02001923           JUNCTION      0.04   310.81     0  01:53     0.00106        2.42       0.039
  YS02001926           JUNCTION      0.05   324.30     0  01:50     0.00147        2.39       0.134
  YS02001929           JUNCTION    206.66   206.66     0  03:01        2.37        2.38       0.027
  YS02001658           JUNCTION      0.00   518.11     0  02:12           0        3.48       0.692
  YS02001661           JUNCTION      0.00   756.28     0  01:52           0        3.72       0.084
  YS02001664           JUNCTION    496.40   496.40     0  02:16        3.49        3.73       0.153
  YS02001622           JUNCTION      0.00   389.14     0  02:16           0        3.29       0.973
  YS02001633           JUNCTION    431.52   457.93     0  01:48        3.93        5.24       0.612
  YS02001649           JUNCTION      0.00  1001.71     0  01:49           0        7.95       0.466
  YS02001757           JUNCTION      0.00  2146.43     0  01:55           0        9.92       0.928
  YS02001895           JUNCTION      0.00   521.59     0  01:51           0        4.27       0.119
  YS02001625           JUNCTION      0.00   435.35     0  02:16           0        3.34       1.185
  YS02163301           JUNCTION      0.00   221.32     0  01:47           0        1.42       1.718
  YS02163601           JUNCTION      0.11   457.45     0  01:48      0.0031        5.11       0.591
  YS02164001           JUNCTION      0.00   456.87     0  01:48           0        5.09       0.396
  YS02001647           JUNCTION      0.00   846.70     0  02:49           0        7.09       0.401
  YSB1154              JUNCTION     46.91    46.91     0  01:52        0.18       0.181       0.805
  YSB6556              JUNCTION      0.00    46.63     0  01:53           0       0.182       0.696
  YSB1174              JUNCTION     39.22    39.22     0  01:50       0.134       0.134       0.962
  YSB1171              JUNCTION      0.00    84.01     0  01:52           0       0.322       2.011
  YS02006553           JUNCTION      0.00   716.38     0  03:36           0        7.29       0.207
  YS02006561           JUNCTION      0.00   982.52     0  02:14           0        11.5       0.006
  YS02006556           JUNCTION      0.00   716.58     0  03:36           0         7.3       0.138
  YS02006558           JUNCTION    590.63   983.51     0  02:15        4.24        11.5       0.040
  YS02001783           JUNCTION      0.00   982.62     0  02:15           0        11.5       0.015
  YS02001784           JUNCTION      1.06   983.63     0  02:10      0.0299        11.5       0.028
  YS02001786           JUNCTION      0.06   983.36     0  02:12     0.00159        11.5       0.030
  YS02001788           JUNCTION      0.07   983.52     0  02:14       0.002        11.5       0.017
  YS02001790           JUNCTION      0.15   983.82     0  02:14     0.00437        11.5       0.008
  YS02001791           JUNCTION      0.00   983.89     0  02:14           0        11.5       0.002
  YS02001793           JUNCTION      0.00   984.32     0  02:11           0        11.5      -0.024
  WSC                  OUTFALL       0.00  1341.27     0  02:05           0        19.7       0.000
  JK-storage           STORAGE       0.00   984.88     0  02:11           0        11.7      -8.181
  CC-storage           STORAGE       0.00  2148.28     0  01:55           0        6.35       1.023
  XR-storage           STORAGE    1054.62  1054.62     0  03:01        15.5        16.1      -0.001
  
  
  **********************
  Node Surcharge Summary
  **********************
  
  Surcharging occurs when water rises above the top of the highest conduit.
  ---------------------------------------------------------------------
                                               Max. Height   Min. Depth
                                   Hours       Above Crown    Below Rim
  Node                 Type      Surcharged         Meters       Meters
  ---------------------------------------------------------------------
  WS02004401           JUNCTION        1.01          0.309        1.351
  WS02004402           JUNCTION        1.07          0.296        1.444
  WS02004403           JUNCTION        1.08          0.270        1.760
  WS02004404           JUNCTION        1.39          0.313        2.467
  WS02004406           JUNCTION        1.31          0.204        2.246
  WS02004413           JUNCTION        0.37          0.031        2.169
  WS02004405           JUNCTION        1.37          0.281        2.519
  WS02006109           JUNCTION        2.90          0.937        0.883
  WS02006110           JUNCTION        1.86          0.634        1.216
  WS02006111           JUNCTION        0.29          0.226        1.644
  WS02006112           JUNCTION        2.05          0.654        1.026
  WS02006113           JUNCTION        0.32          0.242        1.688
  WS02006115           JUNCTION        0.69          0.303        1.947
  WS02006116           JUNCTION        0.71          0.287        2.003
  WS02006230           JUNCTION        1.64          0.900        0.670
  WS02006231           JUNCTION        1.92          0.899        0.631
  WS02006232           JUNCTION        2.77          1.003        0.477
  WS02006234           JUNCTION        2.32          0.872        0.368
  WS02006235           JUNCTION        2.49          0.886        0.404
  WS02006238           JUNCTION        2.53          0.892        0.538
  WS02006240           JUNCTION        2.16          0.734        0.656
  WS02006242           JUNCTION        2.20          0.731        0.089
  WS02006243           JUNCTION        1.83          0.588        0.182
  WS02006245           JUNCTION        1.69          0.517        0.333
  WS02006247           JUNCTION        1.68          0.507        0.253
  WS02006248           JUNCTION        1.52          0.380        0.000
  WS02006249           JUNCTION        1.55          0.390        0.000
  WS02006239           JUNCTION        2.28          0.800        0.490
  WS02006251           JUNCTION        0.51          0.311        0.869
  WS02006252           JUNCTION        1.33          0.446        0.654
  WS02006253           JUNCTION        0.79          0.482        1.998
  WS02006256           JUNCTION        6.80          2.050        0.000
  WS02006228           JUNCTION        2.86          1.109        1.091
  HS02004817           JUNCTION        0.15          0.011        1.729
  YS02001748           JUNCTION        6.04          0.325        0.865
  YS02001751           JUNCTION        6.08          0.597        0.603
  YS02001754           JUNCTION        6.14          0.807        0.343
  YS02001762           JUNCTION        6.19          1.055        0.095
  YS02001765           JUNCTION        6.18          1.002        0.098
  YS02001767           JUNCTION        6.18          0.954        0.076
  YS02001770           JUNCTION        6.18          0.909        0.011
  YS02001774           JUNCTION        6.19          0.992        0.058
  YS02001779           JUNCTION        6.13          0.680        0.000
  YS02001882           JUNCTION        1.82          0.675        0.155
  YS02001884           JUNCTION        1.83          0.705        0.165
  YS02001759           JUNCTION        6.20          1.094        0.116
  YS02001887           JUNCTION        1.88          0.775        0.175
  YS02001890           JUNCTION        1.91          0.760        0.000
  YS02001898           JUNCTION        1.79          0.537        0.203
  YS02001901           JUNCTION        1.86          0.681        0.189
  YS02001904           JUNCTION        1.85          0.637        0.213
  YS02001907           JUNCTION        2.42          0.950        0.000
  YS02001910           JUNCTION        1.94          0.938        0.162
  YS02001915           JUNCTION        1.81          0.839        0.161
  YS02001918           JUNCTION        1.66          0.704        0.106
  YS02001619           JUNCTION        6.09          0.571        0.039
  YS02001629           JUNCTION        6.09          0.470        0.000
  YS02001641           JUNCTION        6.18          0.939        0.161
  YS02001644           JUNCTION        6.18          0.920        0.000
  YS02001652           JUNCTION        6.15          0.874        0.256
  YS02001655           JUNCTION        6.10          0.714        0.486
  YS02001920           JUNCTION        1.69          0.891        0.249
  YS02001923           JUNCTION        0.01          0.500        0.320
  YS02001926           JUNCTION        0.01          0.900        0.000
  YS02001658           JUNCTION        6.05          0.488        0.812
  YS02001661           JUNCTION        0.06          0.324        1.066
  YS02001622           JUNCTION        6.10          0.567        0.053
  YS02001633           JUNCTION        6.17          0.927        0.133
  YS02001649           JUNCTION        6.19          1.050        0.000
  YS02001757           JUNCTION        6.23          1.196        0.014
  YS02001895           JUNCTION        1.79          0.567        0.183
  YS02001625           JUNCTION        6.15          0.780        0.000
  YS02163301           JUNCTION        6.17          0.884        0.146
  YS02163601           JUNCTION        6.20          0.998        0.082
  YS02164001           JUNCTION        6.17          0.930        0.170
  YS02001647           JUNCTION        6.15          0.792        0.108
  YS02006553           JUNCTION        2.50          0.971        0.219
  YS02006561           JUNCTION        1.70          0.295        0.855
  YS02006556           JUNCTION        2.11          0.894        0.456
  YS02006558           JUNCTION        2.08          0.879        0.521
  YS02001783           JUNCTION        1.95          0.828        0.772
  YS02001784           JUNCTION        1.93          0.902        0.588
  YS02001786           JUNCTION        1.87          0.716        0.714
  YS02001788           JUNCTION        1.82          0.654        0.826
  YS02001790           JUNCTION        2.73          1.157        0.000
  YS02001791           JUNCTION        2.81          1.016        0.904
  YS02001793           JUNCTION        3.06          1.529        1.071
  
  
  *********************
  Node Flooding Summary
  *********************
  
  Flooding refers to all water that overflows a node, whether it ponds or not.
  --------------------------------------------------------------------------
                                                             Total   Maximum
                                 Maximum   Time of Max       Flood    Ponded
                        Hours       Rate    Occurrence      Volume     Depth
  Node                 Flooded       LPS   days hr:min    10^6 ltr    Meters
  --------------------------------------------------------------------------
  WS02006248              0.16     58.62      0  01:57       0.013     0.000
  WS02006249              0.71    180.44      0  03:00       0.183     0.000
  WS02006256              4.17    978.40      0  00:00       7.982     0.000
  YS02001779              3.80    766.15      0  02:44       4.336     0.000
  YS02001890              0.81    160.75      0  02:12       0.273     0.000
  YS02001907              1.53    715.52      0  02:16       2.681     0.000
  YS02001629              0.01      1.52      0  07:22       0.000     0.000
  YS02001644              5.66   1610.85      0  02:40      13.744     0.000
  YS02001926              0.01    212.89      0  01:51       0.000     0.000
  YS02001649              0.18     51.68      0  02:45       0.020     0.000
  YS02001625              2.13    435.09      0  02:16       1.967     0.000
  YS02001790              0.01    182.44      0  01:44       0.000     0.000
  JK-storage              0.89    866.78      0  01:50       1.141     0.000
  XR-storage              4.76    674.55      0  03:01       5.269     0.000
  
  
  **********************
  Storage Volume Summary
  **********************
  
  --------------------------------------------------------------------------------------------------
                         Average     Avg  Evap Exfil       Maximum     Max    Time of Max    Maximum
                          Volume    Pcnt  Pcnt  Pcnt        Volume    Pcnt     Occurrence    Outflow
  Storage Unit           1000 m3    Full  Loss  Loss       1000 m3    Full    days hr:min        LPS
  --------------------------------------------------------------------------------------------------
  JK-storage               0.155      53     0     0         0.291     100       0  01:44     983.00
  CC-storage               3.380      22     0     0         4.063      26       0  02:42     400.00
  XR-storage               0.853      92     0     0         0.926     100       0  02:02     380.00
  
  
  ***********************
  Outfall Loading Summary
  ***********************
  
  ---------------------------------------------------------------------------------------------------------------------------------
                         Flow       Avg       Max       Total         Total         Total         Total         Total         Total
                         Freq      Flow      Flow      Volume           COD            SS            TN            TP         NH4-N
  Outfall Node           Pcnt       LPS       LPS    10^6 ltr            kg            kg            kg            kg            kg
  ---------------------------------------------------------------------------------------------------------------------------------
  WSC                   99.98    762.71   1341.27      19.746      2464.524      4394.697       138.484        15.918        82.723
  ---------------------------------------------------------------------------------------------------------------------------------
  System                99.98    762.71   1341.27      19.746      2464.524      4394.697       138.484        15.918        82.723
  
  
  ********************
  Link Flow Summary
  ********************
  
  -----------------------------------------------------------------------------
                                 Maximum  Time of Max   Maximum    Max/    Max/
                                  |Flow|   Occurrence   |Veloc|    Full    Full
  Link                 Type          LPS  days hr:min     m/sec    Flow   Depth
  -----------------------------------------------------------------------------
  WS02003066WSF200     CONDUIT    955.05     0  01:58      3.01    0.16    0.32
  WS02006287WS02006284 CONDUIT    735.70     0  01:54      2.45    0.34    0.41
  WS02006284WS02006280 CONDUIT    736.05     0  01:54      2.68    0.31    0.38
  WS02006280WS02006229 CONDUIT    759.17     0  01:55      4.30    0.16    0.58
  WS02006229WS02006228 CONDUIT    937.40     0  01:56      1.86    3.10    1.00
  WS02006256WS02006235 CONDUIT    288.60     0  00:00      4.23    3.05    1.00
  WS02006253WS02006251 CONDUIT    189.09     0  01:54      0.76    0.57    1.00
  WS02006252WS02006251 CONDUIT    404.43     0  05:03      3.22    1.48    1.00
  WS02006251WS02006249 CONDUIT    451.60     0  03:00      1.17    1.30    1.00
  WS02006249WS02006248 CONDUIT    371.97     0  05:01      1.14    2.04    1.00
  WS02006248WS02006247 CONDUIT    357.02     0  05:01      1.08    0.78    1.00
  WS02006247WS02006245 CONDUIT    330.60     0  05:00      1.01    2.62    1.00
  WS02006245WS02006243 CONDUIT    327.67     0  07:10      1.05    0.97    1.00
  WS02006243WS02006242 CONDUIT    327.65     0  07:10      0.90    0.70    1.00
  WS02006242WS02006240 CONDUIT    327.63     0  07:11      0.90    1.30    1.00
  WS02006240WS02006239 CONDUIT    327.98     0  07:10      0.91    1.03    1.00
  WS02006239WS02006238 CONDUIT    327.99     0  07:10      0.88    1.05    1.00
  WS02006238WS02006235 CONDUIT    328.67     0  07:10      1.46    0.73    1.00
  WS02006235WS02006234 CONDUIT    522.80     0  07:11      1.36    5.52    1.00
  WS02006234WS02006232 CONDUIT    522.93     0  07:11      1.39    1.06    1.00
  WS02006232WS02006231 CONDUIT    522.96     0  07:11      1.36    1.10    1.00
  WS02006231WS02006230 CONDUIT    523.19     0  07:10      1.40    7.94    1.00
  WS02006230WS02006229 CONDUIT    534.36     0  05:03      1.39   11.89    1.00
  WS02006228WS02006109 CONDUIT    937.56     0  01:56      1.87    4.10    1.00
  WS02006116WS02004401 CONDUIT    968.23     0  01:56      1.23    1.33    1.00
  WS02006115WS02006116 CONDUIT    967.78     0  01:56      1.23    1.24    1.00
  WS02006113WS02006111 CONDUIT    937.79     0  01:56      2.60    1.12    1.00
  WS02006112WS02006115 CONDUIT    966.91     0  01:56      1.23    0.57    1.00
  WS02006111WS02006112 CONDUIT    937.72     0  01:56      1.87    0.45    1.00
  WS02006110WS02006113 CONDUIT    938.50     0  01:56      1.87    0.85    1.00
  WS02006109WS02006110 CONDUIT    938.67     0  01:56      1.87    1.80    1.00
  WS02004411WS02004412 CONDUIT    953.57     0  01:58      1.26    1.35    0.93
  WS02004401WS02004402 CONDUIT    968.53     0  01:56      1.23    1.16    1.00
  WS02004413WS02003067 CONDUIT    953.85     0  01:58      1.57    0.41    0.72
  WS02004412WS02004413 CONDUIT    953.69     0  01:58      1.23    0.64    0.96
  WS02004410WS02004411 CONDUIT    951.75     0  01:58      1.24    1.30    0.95
  WS02004409WS02004410 CONDUIT    956.91     0  01:57      1.24    1.24    0.97
  WS02004407WS02004409 CONDUIT    968.68     0  01:56      1.73    0.34    0.69
  WS02004406WS02004407 CONDUIT    971.46     0  01:56      1.65    0.43    0.70
  WS02004405WS02004406 CONDUIT    970.80     0  01:56      1.24    1.91    1.00
  WS02004404WS02004405 CONDUIT    971.05     0  01:56      1.24    9.51    1.00
  WS02004403WS02004404 CONDUIT    969.28     0  01:56      1.23    0.70    1.00
  WS02004402WS02004403 CONDUIT    968.62     0  01:56      1.23    1.39    1.00
  WS02004139WS02001211 CONDUIT    383.01     0  03:16      0.90    0.48    0.64
  WS02004138WS02004139 CONDUIT    396.19     0  00:00      3.65    0.08    0.47
  WS02003067WS02003066 CONDUIT    954.53     0  01:58      1.66    0.31    0.51
  WS02001213WS02003059 CONDUIT    399.27     0  03:15      0.88    0.66    0.87
  WS02001212WS02001213 CONDUIT    395.68     0  03:15      1.32    0.61    0.56
  WS02001211WS02001212 CONDUIT    393.13     0  03:16      0.78    0.30    0.71
  WS02003072WS02003073 CONDUIT   1339.08     0  02:04      1.96    2.89    0.58
  WS02003069WS02003072 CONDUIT   1338.79     0  02:04      1.82    0.64    0.62
  WS02003060WS02003069 CONDUIT   1338.50     0  02:03      2.03    0.52    0.57
  WS02003059WS02003060 CONDUIT    403.96     0  03:15      0.95    0.26    0.77
  HS02004901HS02004770 CONDUIT     36.83     0  01:52      0.10    0.14    0.54
  HS02004876HS02004881 CONDUIT    139.06     0  01:54      1.26    1.48    0.16
  HS02004870HS02004876 CONDUIT    112.62     0  01:54      0.85    0.07    0.19
  HS02004842HS02004848 CONDUIT     18.18     0  02:06      0.08    0.01    0.34
  HS02004837HS02004842 CONDUIT     18.64     0  02:07      0.42    0.01    0.35
  HS02004830HS02004837 CONDUIT     67.83     0  01:54      0.68    0.07    0.14
  HS02004824HS02004830 CONDUIT     68.05     0  01:56      0.62    0.09    0.18
  HS02004817HS02004824 CONDUIT    136.33     0  01:57      0.32    0.06    0.60
  HS02004770HS02004777 CONDUIT    189.67     0  01:52      0.49    0.35    0.55
  HS02004799HS02004480 CONDUIT    470.62     0  01:53      1.09    0.59    0.62
  HS02004792HS02004799 CONDUIT    430.86     0  01:53      1.22    0.26    0.50
  HS02004788HS02004792 CONDUIT    248.72     0  01:54      1.29    0.16    0.28
  HS02004785HS02004788 CONDUIT    189.52     0  01:53      0.92    1.43    0.30
  HS02004777HS02004785 CONDUIT    189.40     0  01:53      0.59    0.23    0.46
  HS02004480HS02004478 CONDUIT    554.36     0  01:53      1.59    2.33    0.50
  HS02004479HS02004480 CONDUIT     83.72     0  01:53      0.37    0.08    0.59
  HS02004862HS02004870 CONDUIT     86.17     0  01:55      0.82    0.09    0.15
  HS02004848HS02004852 CONDUIT     40.37     0  01:54      0.54    0.05    0.11
  HS02004856HS02004862 CONDUIT     60.18     0  01:54      0.61    0.06    0.14
  HS02004852HS02004856 CONDUIT     40.43     0  01:55      0.35    0.05    0.17
  HS02004802HS02004478 CONDUIT    184.71     0  01:57      0.53    0.16    0.50
  HS02004478WS02006287 CONDUIT    735.61     0  01:54      2.18    0.21    0.38
  HS02004817HS02004807 CONDUIT    137.14     0  01:57      0.26    0.08    0.77
  HS02004807HS02004802 CONDUIT    183.90     0  01:56      0.47    0.35    0.56
  YS02001759YS02001757 CONDUIT    877.98     0  01:56      1.12    0.62    1.00
  YS02001762YS02001759 CONDUIT    432.26     0  01:55      0.55    0.50    1.00
  YS02001765YS02001762 CONDUIT    432.02     0  01:54      0.55    0.41    1.00
  YS02001770YS02001767 CONDUIT    432.28     0  01:55      0.55    1.71    1.00
  YS02001774YS02001770 CONDUIT    766.14     0  02:44      0.98    0.49    1.00
  YS02001779YS02001774 CONDUIT    766.15     0  02:44      0.98    0.39    1.00
  YS02001649YS02001757 CONDUIT   1001.65     0  01:49      1.28    0.61    1.00
  YS02001767YS02001765 CONDUIT    432.11     0  01:55      0.55    0.54    1.00
  YS02006561YS02001783 CONDUIT    982.62     0  02:15      2.14    0.51    1.00
  YS02001783YS02001784 CONDUIT    982.57     0  02:10      1.95    1.35    1.00
  YS02001784YS02001785 CONDUIT    983.31     0  02:12      1.96    2.29    1.00
  YS02001788YS02001790 CONDUIT    983.66     0  02:14      2.44    0.72    1.00
  YS02001790YS02001791 CONDUIT    983.89     0  02:14      2.90    1.07    1.00
  YS02001791YS02001793 CONDUIT    984.32     0  02:11      5.76    0.42    1.00
  YS02001910YS02001907 CONDUIT    653.11     0  01:52      0.83    0.37    1.00
  YS02001786YS02001788 CONDUIT    983.45     0  02:14      2.31    1.89    1.00
  YS02001915YS02001910 CONDUIT    652.78     0  01:52      0.83    0.32    1.00
  YS02001918YS02001915 CONDUIT    372.43     0  01:52      0.48    0.21    1.00
  YS02001923YS02001920 CONDUIT    368.15     0  01:52      0.82    0.17    1.00
  YS02001926YS02001923 CONDUIT    310.77     0  01:53      0.92    0.44    1.00
  YS02001929YS02001926 CONDUIT    255.42     0  01:52      0.98    0.12    0.99
  YS02001920YS02001918 CONDUIT    371.39     0  01:52      0.77    0.36    1.00
  YS02001629YS02163301 CONDUIT    221.32     0  01:47      0.28    0.27    1.00
  YS02001619YS02001622 CONDUIT    389.14     0  02:16      0.74    0.57    1.00
  YS02001622YS02001625 CONDUIT    388.61     0  02:15      0.49    0.21    1.00
  YS02001625YS02001629 CONDUIT    221.42     0  01:48      0.29    0.11    1.00
  YS02163301YS02001633 CONDUIT    222.72     0  01:47      0.28    0.21    1.00
  YS02163601YS02164001 CONDUIT    456.87     0  01:48      0.58    0.40    1.00
  YS02164001YS02001641 CONDUIT    455.84     0  01:48      0.58    0.62    1.00
  YS02001641YS02001644 CONDUIT    454.94     0  01:48      0.58    1.47    1.00
  YS02001647YS02001649 CONDUIT    846.70     0  02:49      1.08    0.45    1.00
  YS02006553YS02006556 CONDUIT    716.58     0  03:36      0.91    0.61    1.00
  YS02006556YS02006558 CONDUIT    717.13     0  03:36      0.91    0.57    1.00
  YSB6556YSB1171       CONDUIT     46.63     0  01:54      0.14    0.05    0.84
  YS02001907YS02006553 CONDUIT    716.38     0  03:36      0.80    0.84    1.00
  YS02006558YS02006561 CONDUIT    982.52     0  02:14      3.47    2.17    1.00
  YS02001633YS02163601 CONDUIT    457.34     0  01:48      0.58    0.48    1.00
  YS02001644YS02001647 CONDUIT    846.70     0  02:49      1.08    0.50    1.00
  YS02001745YS02001748 CONDUIT    449.07     0  02:16      1.67    0.17    0.98
  YS02001748YS02001751 CONDUIT    448.93     0  02:15      1.21    0.23    1.00
  YS02001751YS02001754 CONDUIT    449.22     0  02:15      1.02    0.22    1.00
  YS02001754YS02001757 CONDUIT    449.91     0  02:15      0.57    0.18    1.00
  YS02001882YS02001884 CONDUIT     56.59     0  01:48      0.16    0.06    1.00
  YS02001884YS02001887 CONDUIT     65.66     0  01:46      0.12    0.09    1.00
  YS02001890YS02001895 CONDUIT    521.59     0  01:51      0.66    0.24    1.00
  YS02001895YS02001898 CONDUIT    521.67     0  01:51      0.66    0.91    1.00
  YS02001898YS02001901 CONDUIT    522.22     0  01:51      0.66    0.34    1.00
  YS02001901YS02001904 CONDUIT    521.35     0  01:51      0.66    0.81    1.00
  YS02001904YS02001907 CONDUIT    523.12     0  01:50      0.67    0.18    1.00
  YS02001887YS02001890 CONDUIT    677.22     0  02:13      0.86    1.16    1.00
  YS02001652YS02001649 CONDUIT    521.36     0  02:09      0.71    0.26    1.00
  YS02001655YS02001652 CONDUIT    519.29     0  02:09      1.09    0.25    1.00
  YS02001658YS02001655 CONDUIT    518.45     0  02:12      1.41    0.22    1.00
  YS02001661YS02001658 CONDUIT    518.11     0  02:12      1.78    0.20    1.00
  YS02001664YS02001661 CONDUIT    756.28     0  01:52      1.69    0.24    0.77
  YSB1154YSB6556       CONDUIT     46.63     0  01:53      0.15    0.08    0.75
  YSB1174YSB1171       CONDUIT     38.39     0  01:50      0.11    0.06    0.87
  YSB1171HS02004479    CONDUIT     83.75     0  01:53      0.54    0.06    0.70
  HS02004881HS02006253 CONDUIT    157.89     0  01:54      2.75    0.03    0.54
  YS02001793JiankangQianchi CONDUIT    984.88     0  02:11     16.67    0.08    1.00
  YS02001757CaochengTiaoxuchi CONDUIT   2148.28     0  01:55      3.55    0.94    1.00
  WSF200WS02003060     CONDUIT    955.98     0  01:58      1.97    0.21    0.45
  1                    CONDUIT   1341.27     0  02:05      3.59    0.47    0.48
  CC-Pump-1            PUMP       200.00     0  02:50              1.00
  CC-Pump-2            PUMP       200.00     0  05:00              1.00
  JK-Pump-1            PUMP       300.00     0  00:00              1.00
  JK-Pump-2            PUMP       683.00     0  00:00              1.00
  XR-Pump-1            PUMP        95.00     0  00:00              1.00
  XR-Pump-2            PUMP        95.00     0  00:00              1.00
  XR-Pump-3            PUMP        95.00     0  00:00              1.00
  XR-Pump-4            PUMP        95.00     0  00:00              1.00
  
  
  ***************************
  Flow Classification Summary
  ***************************
  
  -------------------------------------------------------------------------------------
                      Adjusted    ---------- Fraction of Time in Flow Class ---------- 
                       /Actual         Up    Down  Sub   Sup   Up    Down  Norm  Inlet 
  Conduit               Length    Dry  Dry   Dry   Crit  Crit  Crit  Crit  Ltd   Ctrl  
  -------------------------------------------------------------------------------------
  WS02003066WSF200        1.00   0.01  0.06  0.00  0.00  0.93  0.00  0.00  0.50  0.00
  WS02006287WS02006284    1.00   0.03  0.01  0.00  0.60  0.36  0.00  0.00  0.63  0.00
  WS02006284WS02006280    1.00   0.04  0.00  0.00  0.00  0.00  0.00  0.96  0.00  0.00
  WS02006280WS02006229    1.00   0.04  0.00  0.00  0.02  0.03  0.00  0.91  0.01  0.00
  WS02006229WS02006228    1.00   0.00  0.00  0.00  1.00  0.00  0.00  0.00  0.00  0.00
  WS02006256WS02006235    1.00   0.00  0.00  0.00  1.00  0.00  0.00  0.00  0.00  0.00
  WS02006253WS02006251    1.00   0.01  0.02  0.00  0.96  0.00  0.01  0.00  0.00  0.00
  WS02006252WS02006251    1.00   0.11  0.00  0.00  0.13  0.01  0.76  0.00  0.00  0.00
  WS02006251WS02006249    1.00   0.00  0.00  0.00  1.00  0.00  0.00  0.00  0.27  0.00
  WS02006249WS02006248    1.00   0.00  0.01  0.00  0.88  0.00  0.11  0.00  0.00  0.00
  WS02006248WS02006247    1.00   0.01  0.00  0.00  0.98  0.00  0.00  0.02  0.12  0.00
  WS02006247WS02006245    1.00   0.01  0.00  0.00  0.96  0.00  0.00  0.04  0.00  0.00
  WS02006245WS02006243    1.00   0.00  0.00  0.00  0.91  0.00  0.00  0.09  0.01  0.00
  WS02006243WS02006242    1.00   0.00  0.00  0.00  0.99  0.00  0.00  0.00  0.27  0.00
  WS02006242WS02006240    1.00   0.00  0.00  0.00  0.99  0.00  0.01  0.00  0.00  0.00
  WS02006240WS02006239    1.00   0.00  0.00  0.00  0.94  0.00  0.00  0.06  0.02  0.00
  WS02006239WS02006238    1.00   0.00  0.00  0.00  1.00  0.00  0.00  0.00  0.13  0.00
  WS02006238WS02006235    1.00   0.00  0.00  0.00  1.00  0.00  0.00  0.00  0.00  0.00
  WS02006235WS02006234    1.00   0.00  0.00  0.00  0.96  0.00  0.04  0.00  0.00  0.00
  WS02006234WS02006232    1.00   0.00  0.00  0.00  1.00  0.00  0.00  0.00  0.08  0.00
  WS02006232WS02006231    1.00   0.00  0.00  0.00  1.00  0.00  0.00  0.00  0.00  0.00
  WS02006231WS02006230    1.00   0.00  0.00  0.00  0.58  0.00  0.42  0.00  0.00  0.00
  WS02006230WS02006229    1.00   0.00  0.00  0.00  1.00  0.00  0.00  0.00  0.01  0.00
  WS02006228WS02006109    1.00   0.00  0.00  0.00  1.00  0.00  0.00  0.00  0.00  0.00
  WS02006116WS02004401    1.00   0.01  0.00  0.00  0.99  0.00  0.00  0.00  0.01  0.00
  WS02006115WS02006116    1.00   0.01  0.00  0.00  0.97  0.00  0.00  0.02  0.01  0.00
  WS02006113WS02006111    1.00   0.01  0.00  0.00  0.09  0.91  0.00  0.00  0.16  0.00
  WS02006112WS02006115    1.00   0.01  0.00  0.00  0.99  0.00  0.00  0.00  0.00  0.00
  WS02006111WS02006112    1.00   0.01  0.00  0.00  0.99  0.00  0.00  0.00  0.81  0.00
  WS02006110WS02006113    1.00   0.00  0.00  0.00  0.99  0.00  0.00  0.00  0.00  0.00
  WS02006109WS02006110    1.00   0.00  0.00  0.00  0.99  0.00  0.00  0.00  0.00  0.00
  WS02004411WS02004412    1.00   0.05  0.00  0.00  0.95  0.00  0.00  0.00  0.00  0.00
  WS02004401WS02004402    1.00   0.01  0.00  0.00  0.99  0.00  0.00  0.00  0.01  0.00
  WS02004413WS02003067    1.00   0.06  0.01  0.00  0.00  0.00  0.93  0.00  0.00  0.00
  WS02004412WS02004413    1.00   0.06  0.00  0.00  0.94  0.00  0.00  0.00  0.00  0.00
  WS02004410WS02004411    1.00   0.05  0.00  0.00  0.95  0.00  0.00  0.00  0.00  0.00
  WS02004409WS02004410    1.00   0.05  0.00  0.00  0.95  0.00  0.00  0.00  0.00  0.00
  WS02004407WS02004409    1.00   0.05  0.00  0.00  0.94  0.01  0.00  0.00  0.81  0.00
  WS02004406WS02004407    1.00   0.00  0.05  0.00  0.95  0.00  0.00  0.00  0.00  0.00
  WS02004405WS02004406    1.00   0.00  0.00  0.00  1.00  0.00  0.00  0.00  0.02  0.00
  WS02004404WS02004405    1.00   0.00  0.00  0.00  1.00  0.00  0.00  0.00  0.00  0.00
  WS02004403WS02004404    1.00   0.00  0.01  0.00  0.99  0.00  0.00  0.00  0.02  0.00
  WS02004402WS02004403    1.00   0.01  0.00  0.00  0.99  0.00  0.00  0.00  0.00  0.00
  WS02004139WS02001211    1.00   0.00  0.00  0.00  1.00  0.00  0.00  0.00  0.00  0.00
  WS02004138WS02004139    1.00   0.00  0.00  0.00  1.00  0.00  0.00  0.00  1.00  0.00
  WS02003067WS02003066    1.00   0.07  0.00  0.00  0.93  0.00  0.00  0.00  0.00  0.00
  WS02001213WS02003059    1.00   0.00  0.00  0.00  1.00  0.00  0.00  0.00  0.00  0.00
  WS02001212WS02001213    1.00   0.00  0.00  0.00  0.92  0.00  0.08  0.00  0.00  0.00
  WS02001211WS02001212    1.00   0.00  0.00  0.00  1.00  0.00  0.00  0.00  0.00  0.00
  WS02003072WS02003073    1.00   0.00  0.00  0.00  0.00  0.00  0.00  1.00  0.00  0.00
  WS02003069WS02003072    1.00   0.00  0.00  0.00  1.00  0.00  0.00  0.00  0.09  0.00
  WS02003060WS02003069    1.00   0.00  0.00  0.00  0.98  0.02  0.00  0.00  0.07  0.00
  WS02003059WS02003060    1.00   0.00  0.00  0.00  1.00  0.00  0.00  0.00  0.00  0.00
  HS02004901HS02004770    1.00   0.04  0.00  0.00  0.96  0.00  0.00  0.00  0.00  0.00
  HS02004876HS02004881    1.00   0.01  0.00  0.00  0.87  0.12  0.00  0.00  0.00  0.00
  HS02004870HS02004876    1.00   0.00  0.00  0.00  1.00  0.00  0.00  0.00  0.95  0.00
  HS02004842HS02004848    1.00   0.00  0.04  0.00  0.96  0.00  0.00  0.00  0.56  0.00
  HS02004837HS02004842    1.00   0.00  0.00  0.00  1.00  0.00  0.00  0.00  0.11  0.00
  HS02004830HS02004837    1.00   0.00  0.00  0.00  1.00  0.00  0.00  0.00  0.99  0.00
  HS02004824HS02004830    1.00   0.00  0.00  0.00  1.00  0.00  0.00  0.00  0.03  0.00
  HS02004817HS02004824    1.00   0.00  0.00  0.00  1.00  0.00  0.00  0.00  0.92  0.00
  HS02004770HS02004777    1.00   0.00  0.04  0.00  0.96  0.00  0.00  0.00  0.02  0.00
  HS02004799HS02004480    1.00   0.00  0.01  0.00  0.96  0.00  0.03  0.00  0.00  0.00
  HS02004792HS02004799    1.00   0.00  0.00  0.00  1.00  0.00  0.00  0.00  0.98  0.00
  HS02004788HS02004792    1.00   0.00  0.00  0.00  1.00  0.00  0.00  0.00  0.98  0.00
  HS02004785HS02004788    1.00   0.00  0.00  0.00  1.00  0.00  0.00  0.00  0.00  0.00
  HS02004777HS02004785    1.00   0.00  0.00  0.00  1.00  0.00  0.00  0.00  0.11  0.00
  HS02004480HS02004478    1.00   0.04  0.00  0.00  0.67  0.00  0.00  0.29  0.00  0.00
  HS02004479HS02004480    1.00   0.01  0.00  0.00  0.99  0.00  0.00  0.00  0.11  0.00
  HS02004862HS02004870    1.00   0.00  0.00  0.00  1.00  0.00  0.00  0.00  0.03  0.00
  HS02004848HS02004852    1.00   0.04  0.00  0.00  0.96  0.00  0.00  0.00  0.79  0.00
  HS02004856HS02004862    1.00   0.00  0.04  0.00  0.96  0.00  0.00  0.00  0.84  0.00
  HS02004852HS02004856    1.00   0.04  0.00  0.00  0.96  0.00  0.00  0.00  0.77  0.00
  HS02004802HS02004478    1.00   0.04  0.00  0.00  0.96  0.00  0.00  0.00  0.02  0.00
  HS02004478WS02006287    1.00   0.04  0.00  0.00  0.71  0.25  0.00  0.00  0.62  0.00
  HS02004817HS02004807    1.00   0.00  0.04  0.00  0.96  0.00  0.00  0.00  0.01  0.00
  HS02004807HS02004802    1.00   0.04  0.00  0.00  0.96  0.00  0.00  0.00  0.00  0.00
  YS02001759YS02001757    1.00   0.00  0.00  0.00  1.00  0.00  0.00  0.00  0.15  0.00
  YS02001762YS02001759    1.00   0.00  0.00  0.00  1.00  0.00  0.00  0.00  0.02  0.00
  YS02001765YS02001762    1.00   0.00  0.00  0.00  1.00  0.00  0.00  0.00  0.13  0.00
  YS02001770YS02001767    1.00   0.00  0.00  0.00  1.00  0.00  0.00  0.00  0.00  0.00
  YS02001774YS02001770    1.00   0.00  0.04  0.00  0.96  0.00  0.00  0.00  0.02  0.00
  YS02001779YS02001774    1.00   0.00  0.00  0.00  1.00  0.00  0.00  0.00  0.17  0.00
  YS02001649YS02001757    1.00   0.00  0.00  0.00  1.00  0.00  0.00  0.00  0.15  0.00
  YS02001767YS02001765    1.00   0.00  0.00  0.00  1.00  0.00  0.00  0.00  0.00  0.00
  YS02006561YS02001783    1.00   0.05  0.00  0.00  0.41  0.54  0.00  0.00  0.45  0.00
  YS02001783YS02001784    1.00   0.00  0.05  0.00  0.95  0.00  0.00  0.00  0.00  0.00
  YS02001784YS02001785    1.00   0.00  0.00  0.00  1.00  0.00  0.00  0.00  0.16  0.00
  YS02001788YS02001790    1.00   0.00  0.00  0.00  0.45  0.55  0.00  0.00  0.35  0.00
  YS02001790YS02001791    1.00   0.00  0.00  0.00  0.42  0.58  0.00  0.00  0.40  0.00
  YS02001791YS02001793    1.00   0.00  0.00  0.00  0.45  0.55  0.00  0.00  0.02  0.00
  YS02001910YS02001907    1.00   0.00  0.00  0.00  0.99  0.00  0.00  0.01  0.12  0.00
  YS02001786YS02001788    1.00   0.00  0.00  0.00  0.43  0.57  0.00  0.00  0.00  0.00
  YS02001915YS02001910    1.00   0.00  0.00  0.00  0.99  0.01  0.00  0.00  0.13  0.00
  YS02001918YS02001915    1.00   0.00  0.00  0.00  0.99  0.00  0.00  0.00  0.50  0.00
  YS02001923YS02001920    1.00   0.00  0.00  0.00  1.00  0.00  0.00  0.00  0.74  0.00
  YS02001926YS02001923    1.00   0.00  0.02  0.00  0.24  0.00  0.74  0.00  0.00  0.00
  YS02001929YS02001926    1.00   0.00  0.04  0.00  0.96  0.00  0.00  0.00  0.65  0.00
  YS02001920YS02001918    1.00   0.00  0.00  0.00  1.00  0.00  0.00  0.00  0.00  0.00
  YS02001629YS02163301    1.00   0.04  0.00  0.00  0.96  0.00  0.00  0.00  0.00  0.00
  YS02001619YS02001622    1.00   0.04  0.00  0.00  0.96  0.00  0.00  0.00  0.00  0.00
  YS02001622YS02001625    1.00   0.04  0.00  0.00  0.96  0.00  0.00  0.00  0.03  0.00
  YS02001625YS02001629    1.00   0.04  0.01  0.00  0.94  0.00  0.01  0.00  0.00  0.00
  YS02163301YS02001633    1.00   0.00  0.04  0.00  0.96  0.00  0.00  0.00  0.00  0.00
  YS02163601YS02164001    1.00   0.00  0.02  0.00  0.98  0.00  0.00  0.00  0.00  0.00
  YS02164001YS02001641    1.00   0.00  0.02  0.00  0.98  0.00  0.00  0.00  0.06  0.00
  YS02001641YS02001644    1.00   0.00  0.00  0.00  1.00  0.00  0.00  0.00  0.00  0.00
  YS02001647YS02001649    1.00   0.00  0.04  0.00  0.96  0.00  0.00  0.00  0.01  0.00
  YS02006553YS02006556    1.00   0.01  0.00  0.00  0.99  0.00  0.00  0.00  0.03  0.00
  YS02006556YS02006558    1.00   0.00  0.00  0.00  1.00  0.00  0.00  0.00  0.00  0.00
  YSB6556YSB1171          1.00   0.01  0.02  0.00  0.96  0.00  0.00  0.00  0.00  0.00
  YS02001907YS02006553    1.00   0.00  0.01  0.00  0.99  0.00  0.00  0.00  0.00  0.00
  YS02006558YS02006561    1.00   0.05  0.00  0.00  0.24  0.71  0.00  0.00  0.45  0.00
  YS02001633YS02163601    1.00   0.00  0.00  0.00  1.00  0.00  0.00  0.00  0.15  0.00
  YS02001644YS02001647    1.00   0.00  0.04  0.00  0.96  0.00  0.00  0.00  0.00  0.00
  YS02001745YS02001748    1.00   0.00  0.00  0.00  0.92  0.00  0.00  0.07  0.01  0.00
  YS02001748YS02001751    1.00   0.00  0.00  0.00  0.97  0.03  0.00  0.00  0.14  0.00
  YS02001751YS02001754    1.00   0.00  0.00  0.00  0.95  0.00  0.00  0.05  0.01  0.00
  YS02001754YS02001757    1.00   0.00  0.00  0.00  1.00  0.00  0.00  0.00  0.17  0.00
  YS02001882YS02001884    1.00   0.04  0.00  0.00  0.96  0.00  0.00  0.00  0.00  0.00
  YS02001884YS02001887    1.00   0.02  0.01  0.00  0.97  0.00  0.00  0.00  0.00  0.00
  YS02001890YS02001895    1.00   0.00  0.04  0.00  0.96  0.00  0.00  0.00  0.00  0.00
  YS02001895YS02001898    1.00   0.04  0.00  0.00  0.95  0.00  0.01  0.00  0.00  0.00
  YS02001898YS02001901    1.00   0.04  0.00  0.00  0.96  0.00  0.00  0.00  0.01  0.00
  YS02001901YS02001904    1.00   0.04  0.00  0.00  0.96  0.00  0.00  0.00  0.00  0.00
  YS02001904YS02001907    1.00   0.00  0.04  0.00  0.96  0.00  0.00  0.00  0.00  0.00
  YS02001887YS02001890    1.00   0.00  0.00  0.00  0.99  0.00  0.01  0.00  0.00  0.00
  YS02001652YS02001649    1.00   0.00  0.00  0.00  1.00  0.00  0.00  0.00  0.15  0.00
  YS02001655YS02001652    1.00   0.00  0.00  0.00  0.95  0.00  0.00  0.05  0.01  0.00
  YS02001658YS02001655    1.00   0.00  0.04  0.00  0.94  0.02  0.00  0.00  0.02  0.00
  YS02001661YS02001658    1.00   0.04  0.00  0.00  0.92  0.04  0.00  0.00  0.01  0.00
  YS02001664YS02001661    1.00   0.04  0.00  0.00  0.93  0.03  0.00  0.00  0.10  0.00
  YSB1154YSB6556          1.00   0.04  0.00  0.00  0.96  0.00  0.00  0.00  0.01  0.00
  YSB1174YSB1171          1.00   0.02  0.01  0.00  0.97  0.00  0.00  0.00  0.00  0.00
  YSB1171HS02004479       1.00   0.01  0.00  0.00  0.98  0.00  0.00  0.00  0.10  0.00
  HS02004881HS02006253    1.00   0.02  0.00  0.00  0.57  0.02  0.00  0.39  0.42  0.00
  YS02001793JiankangQianchi    1.00   0.00  0.00  0.00  0.71  0.29  0.00  0.00  0.32  0.00
  YS02001757CaochengTiaoxuchi    1.00   0.00  0.06  0.00  0.91  0.03  0.00  0.00  0.00  0.00
  WSF200WS02003060        1.00   0.00  0.01  0.00  0.96  0.03  0.00  0.00  0.49  0.00
  1                       1.00   0.00  0.00  0.00  0.00  1.00  0.00  0.00  0.57  0.00
  
  
  *************************
  Conduit Surcharge Summary
  *************************
  
  ----------------------------------------------------------------------------
                                                           Hours        Hours 
                         --------- Hours Full --------   Above Full   Capacity
  Conduit                Both Ends  Upstream  Dnstream   Normal Flow   Limited
  ----------------------------------------------------------------------------
  WS02006229WS02006228        2.86      2.93      2.86      4.21         2.86
  WS02006256WS02006235        5.55      5.56      6.80      4.42         0.01
  WS02006253WS02006251        1.47      1.47      1.51      0.01         0.03
  WS02006252WS02006251        0.67      0.67      1.33      0.75         0.01
  WS02006251WS02006249        1.48      1.48      1.55      0.38         0.32
  WS02006249WS02006248        1.52      1.52      1.55      1.78         0.01
  WS02006248WS02006247        1.56      1.56      1.68      0.01         0.01
  WS02006247WS02006245        1.69      1.72      1.69      2.59         1.42
  WS02006245WS02006243        1.71      1.72      1.83      0.01         0.07
  WS02006243WS02006242        1.87      1.87      2.20      0.01         0.01
  WS02006242WS02006240        2.16      2.16      2.27      0.74         0.01
  WS02006240WS02006239        2.19      2.19      2.28      0.24         0.18
  WS02006239WS02006238        2.40      2.40      2.53      0.26         0.23
  WS02006238WS02006235        2.52      2.52      2.61      0.01         0.02
  WS02006235WS02006234        2.32      2.32      2.49      5.23         0.01
  WS02006234WS02006232        2.40      2.40      2.77      0.33         0.34
  WS02006232WS02006231        1.92      1.92      2.77      0.45         0.01
[...]
  YS02001779YS02001774        6.13      6.13      6.19      0.01         0.01
  YS02001649YS02001757        6.19      6.19      6.23      0.01         0.01
  YS02001767YS02001765        6.18      6.18      6.18      0.01         0.01
  YS02006561YS02001783        1.70      1.70      1.95      0.01         0.01
  YS02001783YS02001784        1.93      1.95      1.93      2.12         1.91
  YS02001784YS02001785        1.87      1.93      1.87      2.91         1.87
  YS02001788YS02001790        1.82      1.82      2.73      0.01         0.01
  YS02001790YS02001791        2.72      2.73      2.81      1.83         1.81
  YS02001791YS02001793        2.81      2.81      3.14      0.01         0.01
  YS02001910YS02001907        1.94      1.94      2.42      0.01         0.01
  YS02001786YS02001788        1.82      1.87      1.82      2.53         1.82
  YS02001915YS02001910        1.81      1.81      1.94      0.01         0.01
  YS02001918YS02001915        1.66      1.66      1.81      0.01         0.01
  YS02001923YS02001920        1.50      1.50      1.69      0.01         0.01
  YS02001926YS02001923        0.01      0.01      0.01      0.01         0.01
  YS02001929YS02001926        0.01      0.01      0.01      0.01         0.01
  YS02001920YS02001918        1.66      1.66      1.69      0.01         0.01
  YS02001629YS02163301        6.16      6.16      6.17      0.01         0.01
  YS02001619YS02001622        6.09      6.09      6.10      0.01         0.02
  YS02001622YS02001625        6.10      6.10      6.15      0.01         0.01
  YS02001625YS02001629        6.09      6.09      6.15      0.01         0.01
  YS02163301YS02001633        6.17      6.17      6.18      0.01         0.01
  YS02163601YS02164001        6.17      6.17      6.20      0.01         0.01
  YS02164001YS02001641        6.17      6.17      6.18      0.01         0.02
  YS02001641YS02001644        6.18      6.18      6.18      2.38         2.55
  YS02001647YS02001649        6.15      6.15      6.19      0.01         0.01
  YS02006553YS02006556        2.11      2.11      2.50      0.01         0.01
  YS02006556YS02006558        2.21      2.21      2.55      0.01         0.01
  YSB6556YSB1171              0.01      0.01      0.30      0.01         0.01
  YS02001907YS02006553        2.94      2.94      3.16      0.01         0.01
  YS02006558YS02006561        1.80      2.08      1.80      2.78         1.80
  YS02001633YS02163601        6.17      6.17      6.20      0.01         0.01
  YS02001644YS02001647        6.15      6.15      6.18      0.01         0.01
  YS02001745YS02001748        0.01      0.01      6.04      0.01         0.01
  YS02001748YS02001751        6.05      6.05      6.08      0.01         0.01
  YS02001751YS02001754        6.08      6.08      6.14      0.01         0.01
  YS02001754YS02001757        6.15      6.15      6.23      0.01         0.01
  YS02001882YS02001884        1.82      1.82      1.83      0.01         0.01
  YS02001884YS02001887        1.86      1.86      1.88      0.01         0.01
  YS02001890YS02001895        1.79      1.79      1.95      0.01         0.01
  YS02001895YS02001898        1.79      1.79      1.79      0.01         0.01
  YS02001898YS02001901        1.80      1.80      1.86      0.01         0.01
  YS02001901YS02001904        1.85      1.85      1.86      0.01         0.01
  YS02001904YS02001907        1.85      1.85      2.51      0.01         0.01
  YS02001887YS02001890        1.91      1.91      1.92      0.52         0.01
  YS02001652YS02001649        6.15      6.15      6.19      0.01         0.01
  YS02001655YS02001652        6.10      6.10      6.15      0.01         0.01
  YS02001658YS02001655        6.05      6.05      6.10      0.01         0.01
  YS02001661YS02001658        0.05      0.05      6.05      0.01         0.01
  YS02001664YS02001661        0.01      0.01      1.80      0.01         0.01
  HS02004881HS02006253        0.01      0.01      0.79      0.01         0.01
  YS02001793JiankangQianchi        3.06      3.06      4.41      0.01         0.01
  YS02001757CaochengTiaoxuchi        5.75      5.75      6.23      0.01         0.01
  
  
  ***************
  Pumping Summary
  ***************
  
  ---------------------------------------------------------------------------------------------------------
                                                  Min       Avg       Max     Total     Power    % Time Off
                        Percent   Number of      Flow      Flow      Flow    Volume     Usage    Pump Curve
  Pump                 Utilized   Start-Ups       LPS       LPS       LPS  10^6 ltr     Kw-hr    Low   High
  ---------------------------------------------------------------------------------------------------------
  CC-Pump-1               48.92           6      0.00    134.07    200.00     1.740      1.36    0.0    0.0
  CC-Pump-2               19.15           4      0.00     98.35    200.00     0.600      0.70    0.0    0.0
  JK-Pump-1               61.71           4      0.00    236.70    300.00     3.953     51.83    0.0    0.0
  JK-Pump-2               59.59           4      0.00    450.20    683.00     7.481     89.34    0.0   97.5
  XR-Pump-1              100.00           1      0.00     93.55     95.00     2.622     21.04    0.0    0.0
  XR-Pump-2               95.75           3      0.00     92.77     95.00     2.451     17.63    0.0    0.0
  XR-Pump-3               95.75           3      0.00     92.77     95.00     2.451     17.63    0.0    0.0
  XR-Pump-4               95.75           3      0.00     92.77     95.00     2.451     17.63    0.0    0.0
  
  
  ***************************
  Link Pollutant Load Summary
  ***************************
  
  ------------------------------------------------------------------------------------------
                                 COD            SS            TN            TP         NH4-N
  Link                            kg            kg            kg            kg            kg
  ------------------------------------------------------------------------------------------
  WS02003066WSF200           983.196      1898.976        23.979         2.037        12.415
  WS02006287WS02006284       438.040       854.436        12.585         1.181         6.762
  WS02006284WS02006280       438.535       855.227        12.632         1.187         6.792
  WS02006280WS02006229       438.541       855.278        12.630         1.186         6.790
  WS02006229WS02006228       972.551      1879.147        23.359         1.960        12.042
  WS02006256WS02006235       245.340       464.072         5.094         0.379         2.528
  WS02006253WS02006251        86.645       174.184         1.830         0.134         0.898
  WS02006252WS02006251       249.700       479.476         4.735         0.326         2.276
  WS02006251WS02006249       326.898       635.849         6.395         0.449         3.095
  WS02006249WS02006248       302.588       587.020         5.931         0.417         2.871
  WS02006248WS02006247       301.316       584.335         5.906         0.415         2.859
  WS02006247WS02006245       301.101       583.991         5.901         0.415         2.856
  WS02006245WS02006243       301.025       584.086         5.891         0.414         2.850
  WS02006243WS02006242       301.194       584.455         5.895         0.414         2.853
  WS02006242WS02006240       300.759       583.382         5.890         0.414         2.851
  WS02006240WS02006239       300.799       583.102         5.895         0.414         2.854
  WS02006239WS02006238       301.672       584.157         5.926         0.417         2.871
  WS02006238WS02006235       301.966       584.238         5.939         0.418         2.878
  WS02006235WS02006234       538.458      1032.393        10.827         0.781         5.301
  WS02006234WS02006232       537.748      1030.996        10.816         0.781         5.296
  WS02006232WS02006231       536.839      1029.266        10.799         0.780         5.288
  WS02006231WS02006230       536.313      1028.301        10.792         0.779         5.285
  WS02006230WS02006229       536.726      1029.063        10.815         0.782         5.299
  WS02006228WS02006109       971.245      1876.694        23.320         1.956        12.021
  WS02006116WS02004401       989.948      1911.453        24.170         2.054        12.518
  WS02006115WS02006116       991.040      1913.454        24.213         2.058        12.542
  WS02006113WS02006111       976.521      1884.560        24.016         2.046        12.462
  WS02006112WS02006115       992.331      1915.784        24.267         2.064        12.574
  WS02006111WS02006112       975.642      1882.823        23.987         2.043        12.446
  WS02006110WS02006113       977.105      1885.526        24.042         2.049        12.478
  WS02006109WS02006110       978.455      1887.870        24.100         2.055        12.511
  WS02004411WS02004412       985.459      1903.055        24.074         2.047        12.470
  WS02004401WS02004402       988.845      1909.480        24.122         2.049        12.490
  WS02004413WS02003067       983.602      1899.771        23.986         2.037        12.418
  WS02004412WS02004413       984.741      1901.729        24.051         2.045        12.457
  WS02004410WS02004411       985.897      1903.873        24.086         2.048        12.476
  WS02004409WS02004410       986.363      1904.724        24.103         2.050        12.486
  WS02004407WS02004409       986.568      1905.119        24.106         2.050        12.487
  WS02004406WS02004407       986.388      1904.803        24.094         2.048        12.480
  WS02004405WS02004406       987.547      1906.809        24.159         2.056        12.519
  WS02004404WS02004405       987.841      1907.458        24.141         2.053        12.506
  WS02004403WS02004404       987.214      1906.547        24.054         2.041        12.451
  WS02004402WS02004403       988.037      1908.019        24.090         2.045        12.472
  WS02004139WS02001211      1341.310      2274.652       100.333        12.098        61.418
  WS02004138WS02004139      1347.378      2284.887       100.785        12.152        61.694
  WS02003067WS02003066       983.301      1899.166        23.984         2.037        12.418
  WS02001213WS02003059      1375.657      2328.482       103.911        12.550        63.667
  WS02001212WS02001213      1384.635      2343.465       104.622        12.636        64.104
  WS02001211WS02001212      1386.009      2345.731       104.734        12.650        64.174
  WS02003072WS02003073      2461.047      4389.787       138.001        15.855        82.414
  WS02003069WS02003072      2464.906      4396.235       138.298        15.891        82.597
  WS02003060WS02003069      2467.521      4400.749       138.467        15.911        82.699
  WS02003059WS02003060      1373.147      2324.147       103.749        12.531        63.570
  HS02004901HS02004770        19.397        38.438         0.369         0.028         0.174
  HS02004876HS02004881        64.837       131.144         1.382         0.100         0.674
  HS02004870HS02004876        49.298        99.611         1.094         0.080         0.536
  HS02004842HS02004848         9.278        18.136         0.191         0.013         0.089
  HS02004837HS02004842        13.925        25.524         0.662         0.072         0.384
  HS02004830HS02004837        81.306       145.727         4.858         0.568         2.931
  HS02004824HS02004830        82.098       147.030         4.931         0.577         2.976
  HS02004817HS02004824       118.559       221.795         5.666         0.624         3.333
  HS02004770HS02004777        73.681       147.818         1.507         0.104         0.700
  HS02004799HS02004480       235.067       460.603         5.678         0.484         2.882
  HS02004792HS02004799       214.131       417.307         5.330         0.464         2.722
  HS02004788HS02004792       116.309       227.326         3.333         0.303         1.755
  HS02004785HS02004788        75.097       150.081         1.654         0.123         0.793
  HS02004777HS02004785        74.428       149.009         1.592         0.115         0.755
  HS02004480HS02004478       294.399       579.871         6.703         0.559         3.370
  HS02004479HS02004480        62.977       125.155         1.335         0.113         0.681
  HS02004862HS02004870        37.529        74.844         0.862         0.066         0.425
  HS02004848HS02004852        15.821        31.380         0.320         0.022         0.149
  HS02004856HS02004862        25.850        52.195         0.514         0.035         0.242
  HS02004852HS02004856        15.835        31.403         0.320         0.022         0.149
  HS02004802HS02004478       144.583       276.085         5.947         0.629         3.432
  HS02004478WS02006287       438.195       854.663        12.601         1.183         6.772
  HS02004817HS02004807       117.194       219.641         5.526         0.607         3.245
  HS02004807HS02004802       144.748       276.337         5.979         0.633         3.453
  YS02001759YS02001757       393.748       746.822         7.663         0.538         3.736
  YS02001762YS02001759       247.296       467.008         4.971         0.351         2.439
  YS02001765YS02001762       249.463       472.414         5.031         0.357         2.471
  YS02001770YS02001767       255.347       487.232         5.024         0.347         2.447
  YS02001774YS02001770       496.145       967.449         9.612         0.646         4.654
  YS02001779YS02001774       495.557       966.387         9.679         0.657         4.701
  YS02001649YS02001757       483.846       906.169         9.614         0.657         4.634
  YS02001767YS02001765       252.427       479.408         5.105         0.363         2.510
  YS02006561YS02001783      1264.194      2386.722        26.076         1.926        12.906
  YS02001783YS02001784      1264.168      2386.712        26.074         1.925        12.904
  YS02001784YS02001785      1271.572      2398.600        26.787         2.015        13.351
  YS02001788YS02001790      1272.234      2399.696        26.860         2.024        13.397
  YS02001790YS02001791      1273.300      2401.423        26.961         2.037        13.460
  YS02001791YS02001793      1273.303      2401.442        26.958         2.036        13.458
  YS02001910YS02001907       565.878      1068.584        12.773         0.943         6.448
  YS02001786YS02001788      1271.785      2398.954        26.816         2.018        13.369
  YS02001915YS02001910       565.504      1067.857        12.723         0.936         6.416
  YS02001918YS02001915       279.059       506.181         6.904         0.594         3.628
  YS02001923YS02001920       253.855       463.109         4.880         0.348         2.379
  YS02001926YS02001923       250.750       457.529         4.756         0.336         2.307
  YS02001929YS02001926       248.046       452.776         4.643         0.324         2.242
  YS02001920YS02001918       274.917       497.492         6.813         0.588         3.583
  YS02001629YS02163301        89.666       159.296         1.894         0.124         0.888
  YS02001619YS02001622       259.384       485.242         5.243         0.348         2.461
  YS02001622YS02001625       258.417       483.725         5.219         0.346         2.450
  YS02001625YS02001629        86.727       153.463         1.848         0.120         0.865
  YS02163301YS02001633        94.497       168.777         1.970         0.131         0.926
  YS02163601YS02164001       529.087       976.633        10.166         0.735         4.886
  YS02164001YS02001641       528.986       976.453        10.153         0.733         4.879
  YS02001641YS02001644       530.010       978.176        10.165         0.734         4.884
  YS02001647YS02001649       645.782      1212.934        12.827         0.888         6.137
  YS02006553YS02006556       782.979      1459.266        16.640         1.260         8.335
  YS02006556YS02006558       783.250      1459.779        16.608         1.255         8.312
  YSB6556YSB1171              36.518        72.728         0.718         0.058         0.359
  YS02001907YS02006553       782.931      1459.179        16.668         1.264         8.354
  YS02006558YS02006561      1264.146      2386.615        26.075         1.926        12.905
  YS02001633YS02163601       529.680       977.564        10.143         0.730         4.868
  YS02001644YS02001647       654.083      1228.547        12.955         0.898         6.196
  YS02001745YS02001748       354.038       679.918         6.988         0.437         3.357
  YS02001748YS02001751       353.360       678.771         6.996         0.440         3.365
  YS02001751YS02001754       352.456       677.293         6.981         0.440         3.359
  YS02001754YS02001757       353.297       678.559         7.148         0.462         3.467
  YS02001882YS02001884         3.334         5.888         0.064         0.005         0.032
  YS02001884YS02001887         7.536        13.611         0.142         0.011         0.070
  YS02001890YS02001895       614.982      1175.776        11.365         0.859         5.545
  YS02001895YS02001898       614.889      1175.701        11.360         0.858         5.542
  YS02001898YS02001901       614.753      1175.446        11.356         0.858         5.541
  YS02001901YS02001904       614.698      1175.397        11.367         0.860         5.548
  YS02001904YS02001907       615.072      1175.980        11.426         0.867         5.585
  YS02001887YS02001890       669.368      1284.556        12.358         0.936         6.033
  YS02001652YS02001649       317.446       601.781         6.312         0.456         2.965
  YS02001655YS02001652       317.882       602.509         6.324         0.457         2.972
  YS02001658YS02001655       317.318       601.644         6.236         0.446         2.915
  YS02001661YS02001658       317.808       602.478         6.248         0.446         2.920
  YS02001664YS02001661       326.033       615.101         6.451         0.460         3.012
  YSB1154YSB6556              36.098        72.063         0.671         0.053         0.330
  YSB1174YSB1171              24.947        50.011         0.489         0.039         0.242
  YSB1171HS02004479           62.899       125.010         1.340         0.114         0.684
  HS02004881HS02006253        73.166       148.466         1.535         0.110         0.748
  YS02001793JiankangQianchi      1273.933      2402.496        26.986         2.039        13.474
  YS02001757CaochengTiaoxuchi       645.794      1227.149        12.490         0.859         6.021
  WSF200WS02003060           983.420      1899.341        24.000         2.039        12.428
  1                         2464.524      4394.697       138.484        15.918        82.723
  CC-Pump-1                  183.686       352.255         3.488         0.240         1.676
  CC-Pump-2                   65.683       126.576         1.236         0.085         0.594
  JK-Pump-1                  335.530       640.311         6.842         0.506         3.382
  JK-Pump-2                  738.682      1416.579        14.828         1.087         7.300
  XR-Pump-1                  363.758       614.368        27.751         3.357        17.018
  XR-Pump-2                  329.148       558.958        24.448         2.944        14.956
  XR-Pump-3                  329.148       558.958        24.448         2.944        14.956
  XR-Pump-4                  329.148       558.958        24.448         2.944        14.956
  

  Analysis begun on:  Thu Jul 15 12:48:49 2021
  Analysis ended on:  Thu Jul 15 12:48:52 2021
  Total elapsed time: 00:00:03