
  EPA STORM WATER MANAGEMENT MODEL - VERSION 5.1 (Build 5.3.0.dev0)
  --------------------------------------------------------------

  WARNING 04: minimum elevation drop used for Conduit WS02004404WS02004405
  WARNING 03: negative offset ignored for Link YS02001904YS02001907
  
  *********************************************************
  NOTE: The summary statistics displayed in this report are
  based on results found at every computational time step,  
  not just on results from each reporting time step.
  *********************************************************
  
  ****************
  Analysis Options
  ****************
  Flow Units ............... LPS
  Process Models:
    Rainfall/Runoff ........ YES
    RDII ................... NO
    Snowmelt ............... NO
    Groundwater ............ NO
    Flow Routing ........... YES
    Ponding Allowed ........ NO
    Water Quality .......... YES
  Infiltration Method ...... HORTON
  Flow Routing Method ...... DYNWAVE
  Surcharge Method ......... EXTRAN
  Starting Date ............ 08/28/2015 08:00:00
  Ending Date .............. 08/28/2015 15:50:00
  Antecedent Dry Days ...... 8.0
  Report Time Step ......... 00:01:00
  Wet Time Step ............ 00:01:00
  Dry Time Step ............ 00:01:00
  Routing Time Step ........ 5.00 sec
  Variable Time Step ....... YES
  Maximum Trials ........... 8
  Number of Threads ........ 4
  Head Tolerance ........... 0.001500 m
  
  
  **************************        Volume         Depth
  Runoff Quantity Continuity     hectare-m            mm
  **************************     ---------       -------
  Total Precipitation ......         5.556        12.164
  Evaporation Loss .........         0.000         0.000
  Infiltration Loss ........         1.002         2.194
  Surface Runoff ...........         3.688         8.075
  Final Storage ............         0.866         1.897
  Continuity Error (%) .....        -0.019
  
  
  **************************           COD            SS            TN            TP         NH4-N
  Runoff Quality Continuity             kg            kg            kg            kg            kg
  **************************    ----------    ----------    ----------    ----------    ----------
  Initial Buildup ..........     41378.656     70582.865      1804.177       168.684      1032.807
  Surface Buildup ..........        19.275        34.271         2.335         0.213         1.362
  Wet Deposition ...........         0.000         0.000         0.000         0.000         0.000
  Sweeping Removal .........         0.000         0.000         0.000         0.000         0.000
  Infiltration Loss ........        84.023       157.502         1.599         0.111         0.761
  BMP Removal ..............         0.000         0.000         0.000         0.000         0.000
  Surface Runoff ...........      3122.074      5752.154        60.620         4.098        28.771
  Remaining Buildup ........     38190.779     64705.500      1744.271       164.686      1004.628
  Continuity Error (%) .....         0.003         0.003         0.001         0.001         0.001
  
  
  **************************        Volume        Volume
  Flow Routing Continuity        hectare-m      10^6 ltr
  **************************     ---------     ---------
  Dry Weather Inflow .......         0.616         6.165
  Wet Weather Inflow .......         3.687        36.870
  Groundwater Inflow .......         0.000         0.000
  RDII Inflow ..............         0.000         0.000
  External Inflow ..........         0.102         1.024
  External Outflow .........         1.818        18.179
  Flooding Loss ............         2.148        21.482
  Evaporation Loss .........         0.000         0.000
  Exfiltration Loss ........         0.000         0.000
  Initial Stored Volume ....         0.076         0.761
  Final Stored Volume ......         0.627         6.269
  Continuity Error (%) .....        -2.480
  
  
  **************************           COD            SS            TN            TP         NH4-N
  Quality Routing Continuity            kg            kg            kg            kg            kg
  **************************    ----------    ----------    ----------    ----------    ----------
  Dry Weather Inflow .......      1541.201      2465.922       147.955        18.494        92.472
  Wet Weather Inflow .......      3121.209      5750.653        60.602         4.097        28.762
  Groundwater Inflow .......         0.000         0.000         0.000         0.000         0.000
  RDII Inflow ..............         0.000         0.000         0.000         0.000         0.000
  External Inflow ..........       183.418       293.469        17.608         2.201        11.005
  External Outflow .........      2198.954      3748.392       147.625        17.518        89.716
  Flooding Loss ............      1965.353      3588.612        51.495         4.498        27.139
  Exfiltration Loss ........         0.000         0.000         0.000         0.000         0.000
  Mass Reacted .............         0.000         0.000         0.000         0.000         0.000
  Initial Stored Mass ......         0.000         0.000         0.000         0.000         0.000
  Final Stored Mass ........       543.339       936.629        23.578         2.500        13.616
  Continuity Error (%) .....         2.852         2.778         1.533         1.115         1.337
  
  
  *************************
  Highest Continuity Errors
  *************************
  Node HS02004842 (14.53%)
  Node YS02001884 (11.44%)
  Node JK-storage (-11.12%)
  Node YSB1171 (2.74%)
  Node HS02004817 (2.73%)
  
  
  ***************************
  Time-Step Critical Elements
  ***************************
  Link WS02006252WS02006251 (57.23%)
  Link WS02006280WS02006229 (13.01%)
  Link WS02006238WS02006235 (8.39%)
  Link YS02001793JiankangQianchi (7.86%)
  Link YS02006556YS02006558 (3.30%)
  
  
  ********************************
  Highest Flow Instability Indexes
  ********************************
  Link WS02006113WS02006111 (53)
  Link YS02163601YS02164001 (46)
  Link YS02163301YS02001633 (44)
  Link YS02001629YS02163301 (43)
  Link YS02001619YS02001622 (43)
  
  
  *************************
  Routing Time Step Summary
  *************************
  Minimum Time Step           :     0.35 sec
  Average Time Step           :     1.32 sec
  Maximum Time Step           :     5.00 sec
  Percent in Steady State     :    -0.00
  Average Iterations per Step :     4.70
  Percent Not Converging      :    23.64
  
  
  ***************************
  Subcatchment Runoff Summary
  ***************************
  
  ------------------------------------------------------------------------------------------------------------------------------
                            Total      Total      Total      Total     Imperv       Perv      Total       Total     Peak  Runoff
                           Precip      Runon       Evap      Infil     Runoff     Runoff     Runoff      Runoff   Runoff   Coeff
  Subcatchment                 mm         mm         mm         mm         mm         mm         mm    10^6 ltr      LPS
  ------------------------------------------------------------------------------------------------------------------------------
  sub0                      12.16       0.00       0.00       0.65      11.27       0.20      11.47        0.01     1.99   0.943
  sub1                      12.16       0.00       0.00       1.12      10.73       0.22      10.95        0.07    14.96   0.900
  sub2                      12.16       0.00       0.00       4.23       7.58       0.27       7.85        0.07    15.08   0.646
  sub3                      12.16       0.00       0.00       4.29       7.54       0.21       7.75        0.17    34.61   0.637
  sub4                      12.16       0.00       0.00       1.19      10.57       0.14      10.71        0.22    42.34   0.881
  sub5                      12.16       0.00       0.00       0.69      11.21       0.16      11.38        0.13    26.18   0.935
  sub7                      12.16       0.00       0.00       0.88      11.01       0.22      11.22        0.04     7.95   0.923
  sub8                      12.16       0.00       0.00       0.89      11.00       0.21      11.20        0.07    14.89   0.921
  sub9                      12.16       0.00       0.00       0.89      10.99       0.21      11.20        0.05    11.18   0.921
  sub10                     12.16       0.00       0.00       0.79      11.10       0.18      11.28        0.12    25.49   0.928
  sub11                     12.16       0.00       0.00       0.78      11.12       0.19      11.31        0.13    27.35   0.930
  sub12                     12.16       0.00       0.00       1.27      10.53       0.31      10.85        0.09    20.52   0.892
  sub14                     12.16       0.00       0.00       0.89      10.99       0.20      11.20        0.11    22.08   0.920
  sub15                     12.16       0.00       0.00       3.28       8.45       0.37       8.82        0.15    32.49   0.725
  sub16                     12.16       0.00       0.00       3.51       8.11       0.50       8.61        0.09    20.36   0.708
  sub17                     12.16       0.00       0.00       3.41       8.23       0.48       8.71        0.07    16.72   0.716
  sub22                     12.16       0.00       0.00       4.80       6.89       0.43       7.32        0.46   102.62   0.602
  sub23                     12.16       0.00       0.00       4.05       7.62       0.45       8.07        0.38    85.35   0.663
  sub60                     12.16       0.00       0.00       1.42       8.82       0.04       8.86        2.69   336.84   0.729
  sub61                     12.16       0.00       0.00       2.01       8.94       0.06       9.00        2.78   399.45   0.740
  sub62                     12.16       0.00       0.00       0.92       9.73       0.05       9.78        3.01   415.79   0.804
  sub63                     12.16       0.00       0.00       3.46       7.82       0.06       7.88        2.39   361.21   0.648
  sub64                     12.16       0.00       0.00       1.78       8.47       0.04       8.51        2.59   320.97   0.699
  sub65                     12.16       0.00       0.00       1.54       8.61       0.04       8.65        2.66   326.54   0.711
  sub66                     12.16       0.00       0.00       3.49       7.26       0.04       7.30        2.24   290.53   0.600
  sub67                     12.16       0.00       0.00       0.91      10.24       0.07      10.31        3.18   494.23   0.848
  sub68                     12.16       0.00       0.00       1.64       9.40       0.06       9.46        2.91   432.52   0.778
  sub69                     12.16       0.00       0.00       1.73       9.72       0.09       9.82        2.29   383.95   0.807
  sub70                     12.16      10.02       0.00       6.98      13.09       0.56      13.65        3.12   394.93   0.615
  sub71                     12.16       0.00       0.00       0.93       9.48       0.05       9.53        2.25   296.34   0.783
  sub72                     12.16       0.00       0.00       0.83       7.62       0.02       7.64        1.56   151.13   0.628
  1                         12.16      13.29       0.00       1.37      14.64       3.94      18.57        4.36   399.24   0.730
  2                         12.16       0.00       0.00       3.02       2.89       1.65       4.55        1.82   245.52   0.374
  
  
  ****************************
  Subcatchment Washoff Summary
  ****************************
  
  ------------------------------------------------------------------------------------------
                                 COD            SS            TN            TP         NH4-N
  Subcatchment                    kg            kg            kg            kg            kg
  ------------------------------------------------------------------------------------------
  sub0                         2.176         4.147         0.037         0.003         0.018
  sub1                         9.268        18.138         0.173         0.012         0.083
  sub2                         5.563        10.570         0.119         0.008         0.054
  sub3                        13.747        25.918         0.288         0.019         0.132
  sub4                        21.530        42.606         0.429         0.026         0.205
  sub5                        21.300        41.103         0.378         0.029         0.183
  sub7                         4.748         9.424         0.090         0.006         0.043
  sub8                         7.142        14.500         0.143         0.008         0.069
  sub9                         6.100        12.212         0.118         0.007         0.057
  sub10                       17.532        34.266         0.321         0.023         0.155
  sub11                       17.086        33.770         0.320         0.022         0.154
  sub12                       14.392        27.890         0.260         0.019         0.125
  sub14                       13.021        25.823         0.247         0.016         0.119
  sub15                       16.182        30.744         0.313         0.023         0.146
  sub16                       10.318        19.555         0.197         0.015         0.092
  sub17                        9.471        17.789         0.175         0.014         0.082
  sub22                       48.821        90.813         0.932         0.070         0.434
  sub23                       29.138        56.181         0.627         0.041         0.287
  sub60                      203.703       376.194         4.083         0.248         1.956
  sub61                      251.300       461.579         4.699         0.320         2.261
  sub62                      262.762       491.326         5.157         0.324         2.474
  sub63                      185.047       334.594         3.739         0.261         1.731
  sub64                      253.867       452.095         4.687         0.339         2.235
  sub65                      260.106       465.192         4.834         0.344         2.309
  sub66                      146.558       263.078         3.037         0.197         1.417
  sub67                      388.205       718.566         6.963         0.510         3.363
  sub68                      276.714       513.393         5.318         0.356         2.539
  sub69                      247.676       464.012         4.658         0.325         2.225
  sub70                      413.256       778.342         8.287         0.572         3.877
  sub71                      173.740       327.842         3.597         0.206         1.720
  sub72                      136.329       239.316         2.558         0.174         1.230
  1                          280.724       531.718         5.751         0.398         2.660
  2                           35.485        61.812         1.030         0.062         0.437
  ------------------------------------------------------------------------------------------
  System                    3783.006      6994.507        73.566         4.996        34.873
  
  
  ******************
  Node Depth Summary
  ******************
  
  ---------------------------------------------------------------------------------
                                 Average  Maximum  Maximum  Time of Max    Reported
                                   Depth    Depth      HGL   Occurrence   Max Depth
  Node                 Type       Meters   Meters   Meters  days hr:min      Meters
  ---------------------------------------------------------------------------------
  WS02001211           JUNCTION     0.76     0.82     5.66     0  03:13        0.82
  WS02001212           JUNCTION     0.47     0.54     5.61     0  03:13        0.54
  WS02001213           JUNCTION     0.70     0.81     5.57     0  03:12        0.81
  WS02003069           JUNCTION     0.49     0.66     5.25     0  03:11        0.66
  WS02003072           JUNCTION     0.55     0.71     5.08     0  03:11        0.71
  WS02003073           JUNCTION     0.34     0.44     4.51     0  03:12        0.44
  WS02003060           JUNCTION     0.43     0.58     5.52     0  03:10        0.58
  WS02003066           JUNCTION     0.23     0.35     5.91     0  03:09        0.35
  WS02003059           JUNCTION     0.75     0.87     5.55     0  03:11        0.87
  WS02003067           JUNCTION     0.56     0.78     6.10     0  03:09        0.78
  WS02004401           JUNCTION     0.66     1.09     7.09     0  03:07        1.08
  WS02004402           JUNCTION     0.69     1.09     7.05     0  03:07        1.09
  WS02004403           JUNCTION     0.71     1.08     7.01     0  03:07        1.08
  WS02004404           JUNCTION     0.79     1.14     6.99     0  03:07        1.14
  WS02004406           JUNCTION     0.79     1.09     6.92     0  03:07        1.09
  WS02004409           JUNCTION     0.48     0.83     6.60     0  03:09        0.83
  WS02004410           JUNCTION     0.50     0.83     6.55     0  03:09        0.83
  WS02004411           JUNCTION     0.52     0.83     6.51     0  03:09        0.83
  WS02004412           JUNCTION     0.53     0.82     6.46     0  03:09        0.82
  WS02004413           JUNCTION     0.69     0.96     6.43     0  03:09        0.96
  WS02004405           JUNCTION     0.78     1.12     6.97     0  03:07        1.12
  WS02006109           JUNCTION     0.74     1.23     7.85     0  03:06        1.22
  WS02006110           JUNCTION     0.73     1.09     7.67     0  03:06        1.09
  WS02006111           JUNCTION     0.22     0.56     7.27     0  03:07        0.56
  WS02006112           JUNCTION     0.83     1.35     7.23     0  03:07        1.34
  WS02006113           JUNCTION     0.33     0.59     7.48     0  03:07        0.58
  WS02006115           JUNCTION     0.56     1.03     7.17     0  03:07        1.03
  WS02006116           JUNCTION     0.64     1.09     7.13     0  03:07        1.09
  WS02006230           JUNCTION     0.72     1.44     8.18     0  03:06        1.42
  WS02006231           JUNCTION     0.48     1.14     8.27     0  03:06        1.14
  WS02006232           JUNCTION     0.61     1.30     8.34     0  03:06        1.29
  WS02006234           JUNCTION     0.53     1.26     8.42     0  03:06        1.26
  WS02006235           JUNCTION     0.56     1.32     8.48     0  03:06        1.31
  WS02006238           JUNCTION     0.59     1.34     8.49     0  03:06        1.33
  WS02006240           JUNCTION     0.48     1.26     8.56     0  03:50        1.24
  WS02006242           JUNCTION     0.54     1.35     8.62     0  03:50        1.30
  WS02006243           JUNCTION     0.42     1.33     8.75     0  03:50        1.18
  WS02006245           JUNCTION     0.39     1.49     8.98     0  03:50        1.22
  WS02006247           JUNCTION     0.40     1.25     8.75     0  03:50        1.15
  WS02006248           JUNCTION     0.35     1.09     8.68     0  03:05        1.09
  WS02006249           JUNCTION     0.37     1.09     8.69     0  03:05        1.09
  WS02006239           JUNCTION     0.54     1.31     8.51     0  03:06        1.29
  WS02006251           JUNCTION     0.35     1.31     8.98     0  05:32        1.15
  WS02006252           JUNCTION     0.23     0.87     9.11     0  05:32        0.70
  WS02006253           JUNCTION     0.38     1.71     9.35     0  03:51        1.17
  WS02006256           JUNCTION     1.54     2.35     9.28     0  00:48        2.35
  WS02004138           JUNCTION     0.19     0.20     7.45     0  00:00        0.19
  WS02004139           JUNCTION     0.71     0.76     5.67     0  03:13        0.76
  WS02004407           JUNCTION     0.21     0.36     6.67     0  03:08        0.36
  WS02006228           JUNCTION     0.75     1.35     8.00     0  03:06        1.34
  WS02006229           JUNCTION     0.72     1.39     8.08     0  03:06        1.39
  WS02006280           JUNCTION     0.07     0.20     8.47     0  03:02        0.20
  WS02006284           JUNCTION     0.37     0.56     8.96     0  03:02        0.56
  WS02006287           JUNCTION     0.10     0.30     9.25     0  03:01        0.30
  WSF200               JUNCTION     0.21     0.39     5.62     0  03:09        0.39
  HS02004901           JUNCTION     0.13     0.29    10.12     0  03:01        0.29
  HS02004881           JUNCTION     0.01     0.04     9.07     0  03:01        0.04
  HS02004876           JUNCTION     0.05     0.12     9.15     0  03:01        0.12
  HS02004870           JUNCTION     0.02     0.07     9.35     0  03:01        0.07
  HS02004862           JUNCTION     0.02     0.08     9.46     0  03:01        0.08
  HS02004856           JUNCTION     0.08     0.13     9.55     0  03:01        0.13
  HS02004852           JUNCTION     0.01     0.05     9.56     0  03:01        0.05
  HS02004848           JUNCTION     0.01     0.05     9.65     0  03:01        0.05
  HS02004842           JUNCTION     0.34     0.38     9.65     0  03:01        0.38
  HS02004837           JUNCTION     0.03     0.07     9.65     0  03:01        0.07
  HS02004830           JUNCTION     0.04     0.08     9.55     0  03:01        0.08
  HS02004824           JUNCTION     0.02     0.06     9.47     0  03:01        0.06
  HS02004817           JUNCTION     0.45     0.61     9.45     0  03:01        0.61
  HS02004807           JUNCTION     0.13     0.28     9.45     0  03:01        0.28
  HS02004802           JUNCTION     0.17     0.31     9.44     0  03:01        0.31
  HS02004799           JUNCTION     0.13     0.35     9.56     0  03:01        0.35
  HS02004792           JUNCTION     0.04     0.15     9.67     0  03:01        0.15
  HS02004788           JUNCTION     0.03     0.11    10.01     0  03:01        0.11
  HS02004785           JUNCTION     0.05     0.18    10.09     0  03:01        0.18
  HS02004777           JUNCTION     0.15     0.31    10.11     0  03:01        0.31
  HS02004770           JUNCTION     0.12     0.29    10.12     0  03:01        0.29
  HS02004480           JUNCTION     0.09     0.28     9.52     0  03:01        0.28
  HS02004479           JUNCTION     0.12     0.32     9.52     0  03:01        0.32
  HS02004478           JUNCTION     0.07     0.20     9.42     0  03:01        0.20
  YS02001745           JUNCTION     0.73     0.93     8.44     0  03:00        0.92
  YS02001748           JUNCTION     1.12     1.63     8.70     0  02:27        1.36
  YS02001751           JUNCTION     1.31     2.08     8.96     0  02:17        1.56
  YS02001754           JUNCTION     1.56     2.00     8.61     0  02:17        1.82
  YS02001762           JUNCTION     1.76     2.04     8.44     0  02:59        2.03
  YS02001765           JUNCTION     1.71     1.99     8.44     0  02:59        1.98
  YS02001767           JUNCTION     1.67     1.95     8.44     0  02:59        1.94
  YS02001770           JUNCTION     1.67     1.92     8.42     0  02:59        1.92
  YS02001774           JUNCTION     1.74     1.98     8.41     0  03:00        1.97
  YS02001779           JUNCTION     1.48     1.68     8.37     0  02:27        1.68
  YS02001882           JUNCTION     0.56     1.62     8.33     0  02:58        1.61
  YS02001884           JUNCTION     0.65     1.72     8.34     0  03:00        1.71
  YS02001759           JUNCTION     1.79     2.08     8.44     0  02:59        2.07
  YS02001887           JUNCTION     0.73     1.80     8.33     0  02:57        1.79
  YS02001890           JUNCTION     0.76     1.81     8.32     0  02:56        1.81
  YS02001898           JUNCTION     0.53     1.56     8.29     0  02:58        1.55
  YS02001901           JUNCTION     0.65     1.67     8.28     0  02:59        1.67
  YS02001904           JUNCTION     0.62     1.64     8.27     0  03:00        1.63
  YS02001907           JUNCTION     0.96     1.96     8.25     0  02:45        1.96
  YS02001910           JUNCTION     0.74     1.78     8.28     0  02:46        1.77
  YS02001915           JUNCTION     0.54     1.59     8.30     0  02:46        1.57
  YS02001918           JUNCTION     0.29     1.25     8.32     0  02:46        1.25
  YS02001619           JUNCTION     1.27     1.61     8.54     0  02:27        1.47
  YS02001629           JUNCTION     1.62     1.85     8.40     0  02:27        1.84
  YS02001641           JUNCTION     1.72     1.93     8.37     0  02:59        1.93
  YS02001644           JUNCTION     1.72     1.92     8.35     0  02:35        1.92
  YS02001652           JUNCTION     1.57     2.13     8.72     0  02:50        1.91
  YS02001655           JUNCTION     1.33     2.20     9.05     0  02:18        1.72
  YS02001920           JUNCTION     0.39     1.33     8.34     0  02:46        1.31
  YS02001923           JUNCTION     0.22     1.08     8.34     0  02:46        1.07
  YS02001926           JUNCTION     0.28     0.91     8.35     0  02:46        0.89
  YS02001929           JUNCTION     0.16     0.68     8.38     0  02:45        0.68
  YS02001658           JUNCTION     1.07     2.03     9.17     0  02:50        1.48
  YS02001661           JUNCTION     0.84     2.02     9.43     0  03:32        1.23
  YS02001664           JUNCTION     0.37     0.57     8.50     0  04:04        0.57
  YS02001622           JUNCTION     1.29     1.62     8.52     0  02:27        1.49
  YS02001633           JUNCTION     1.71     1.95     8.40     0  02:35        1.94
  YS02001649           JUNCTION     1.76     2.05     8.44     0  02:40        2.05
  YS02001757           JUNCTION     1.89     2.18     8.44     0  02:59        2.16
  YS02001895           JUNCTION     0.52     1.56     8.31     0  02:58        1.55
  YS02001625           JUNCTION     1.57     1.78     8.38     0  02:27        1.78
  YS02163301           JUNCTION     1.65     1.91     8.42     0  02:28        1.87
  YS02163601           JUNCTION     1.76     1.99     8.39     0  02:55        1.98
  YS02164001           JUNCTION     1.70     1.92     8.37     0  02:35        1.91
  YS02001647           JUNCTION     1.55     1.80     8.41     0  04:04        1.79
  YSB1154              JUNCTION     0.26     0.47     9.52     0  03:01        0.47
  YSB6556              JUNCTION     0.16     0.35     9.52     0  03:01        0.35
  YSB1174              JUNCTION     0.21     0.41     9.52     0  03:01        0.41
  YSB1171              JUNCTION     0.42     0.62     9.52     0  03:01        0.62
  YS02006553           JUNCTION     0.96     1.97     8.25     0  02:59        1.96
  YS02006561           JUNCTION     0.32     1.08     7.74     0  02:46        1.07
  YS02006556           JUNCTION     0.92     1.92     8.23     0  02:59        1.92
  YS02006558           JUNCTION     0.96     1.96     8.23     0  03:00        1.95
  YS02001783           JUNCTION     0.54     1.47     7.61     0  02:48        1.45
  YS02001784           JUNCTION     0.56     1.47     7.53     0  02:34        1.41
  YS02001786           JUNCTION     0.50     1.60     7.63     0  02:34        1.25
  YS02001788           JUNCTION     0.43     1.86     7.84     0  02:34        1.12
  YS02001790           JUNCTION     0.56     1.96     7.60     0  04:31        1.28
  YS02001791           JUNCTION     0.53     2.20     7.67     0  04:30        1.27
  YS02001793           JUNCTION     0.73     2.70     7.53     0  04:29        1.80
  WSC                  OUTFALL      0.34     0.44     1.11     0  03:13        0.44
  JK-storage           STORAGE      3.11     5.80     6.60     0  02:01        5.80
  CC-storage           STORAGE      1.15     1.42     8.42     0  03:03        1.42
  XR-storage           STORAGE      6.58     7.72     5.72     0  02:50        7.72
  
  
  *******************
  Node Inflow Summary
  *******************
  
  -------------------------------------------------------------------------------------------------
                                  Maximum  Maximum                  Lateral       Total        Flow
                                  Lateral    Total  Time of Max      Inflow      Inflow     Balance
                                   Inflow   Inflow   Occurrence      Volume      Volume       Error
  Node                 Type           LPS      LPS  days hr:min    10^6 ltr    10^6 ltr     Percent
  -------------------------------------------------------------------------------------------------
  WS02001211           JUNCTION      7.35   389.50     0  03:28       0.207        9.97       0.395
  WS02001212           JUNCTION      0.00   391.50     0  03:28           0        9.93       0.241
  WS02001213           JUNCTION      0.00   393.22     0  03:28           0        9.91       0.264
  WS02003069           JUNCTION      0.32  1167.17     0  03:11     0.00902        18.2       0.148
  WS02003072           JUNCTION      0.00  1167.12     0  03:11           0        18.2       0.188
  WS02003073           JUNCTION      1.82  1169.18     0  03:12      0.0514        18.2       0.210
  WS02003060           JUNCTION     16.53  1166.62     0  03:10       0.466        18.2       0.142
  WS02003066           JUNCTION      0.00   773.51     0  03:09           0        7.94       0.034
  WS02003059           JUNCTION      0.00   395.60     0  03:27           0        9.88       0.384
  WS02003067           JUNCTION      0.00   773.12     0  03:09           0        7.95       0.079
  WS02004401           JUNCTION      0.00   779.10     0  03:08           0        8.11       0.195
  WS02004402           JUNCTION      0.00   779.04     0  03:08           0        8.09       0.188
  WS02004403           JUNCTION      0.00   779.18     0  03:08           0        8.08       0.176
  WS02004404           JUNCTION      0.16   779.54     0  03:08     0.00457        8.07       0.140
  WS02004406           JUNCTION      0.00   779.43     0  03:08           0        8.04       0.336
  WS02004409           JUNCTION      0.00   778.50     0  03:08           0        8.01       0.106
  WS02004410           JUNCTION      0.00   775.92     0  03:08           0           8       0.129
  WS02004411           JUNCTION      0.00   773.99     0  03:09           0        7.99       0.139
  WS02004412           JUNCTION      0.00   773.24     0  03:09           0        7.98       0.161
  WS02004413           JUNCTION      0.00   773.09     0  03:09           0        7.97       0.260
  WS02004405           JUNCTION      0.04   779.80     0  03:08     0.00107        8.06       0.205
  WS02006109           JUNCTION      1.23   780.62     0  03:06      0.0347        8.13       0.221
  WS02006110           JUNCTION      0.00   780.72     0  03:06           0        8.11       0.217
  WS02006111           JUNCTION      0.00   770.64     0  03:06           0        8.09       0.037
  WS02006112           JUNCTION     16.72   778.44     0  03:07      0.0747        8.16       0.302
  WS02006113           JUNCTION      0.00   780.69     0  03:06           0        8.09       0.088
  WS02006115           JUNCTION      0.00   778.21     0  03:07           0        8.13       0.175
  WS02006116           JUNCTION      0.00   778.75     0  03:07           0        8.12       0.140
  WS02006230           JUNCTION     10.28   532.59     0  05:33        0.29        5.96       0.173
  WS02006231           JUNCTION      0.00   522.56     0  05:33           0        5.68       0.128
  WS02006232           JUNCTION      0.00   522.24     0  05:33           0        5.69       0.240
  WS02006234           JUNCTION      0.00   522.44     0  05:34           0         5.7       0.113
  WS02006235           JUNCTION      0.00   522.57     0  05:34           0        5.79       0.145
  WS02006238           JUNCTION      0.00   418.72     0  05:40           0        2.49       0.263
  WS02006240           JUNCTION      0.00   417.70     0  05:40           0        2.43       0.430
  WS02006242           JUNCTION      0.00   417.52     0  05:40           0        2.41       0.538
  WS02006243           JUNCTION      0.00   417.16     0  05:40           0         2.4       0.334
  WS02006245           JUNCTION      0.00   416.53     0  05:40           0         2.4       0.551
  WS02006247           JUNCTION      0.00   416.42     0  05:40           0         2.4       0.288
  WS02006248           JUNCTION      0.00   416.61     0  05:40           0         2.4       0.083
  WS02006249           JUNCTION      0.00   448.48     0  03:10           0        2.51       0.497
  WS02006239           JUNCTION      0.00   418.81     0  05:40           0        2.46       0.125
  WS02006251           JUNCTION      0.08   446.99     0  03:10     0.00217        2.56       0.308
  WS02006252           JUNCTION      0.00   400.00     0  05:30           0         2.1       0.022
  WS02006253           JUNCTION      1.99   152.83     0  03:50     0.00928       0.458       0.810
  WS02006256           JUNCTION      0.00   983.00     0  02:10           0        9.41       0.015
  WS02004138           JUNCTION      0.00   380.00     0  00:00           0         9.8       0.066
  WS02004139           JUNCTION      0.32   394.45     0  00:00     0.00905        9.81       0.457
  WS02004407           JUNCTION      0.00   779.19     0  03:08           0        8.01       0.050
  WS02006228           JUNCTION      0.00   779.53     0  03:06           0        8.11       0.162
  WS02006229           JUNCTION      0.00   780.45     0  03:05           0        8.12       0.147
  WS02006280           JUNCTION      0.00   413.58     0  03:02           0        2.17       0.006
  WS02006284           JUNCTION      0.10   413.53     0  03:02      0.0027        2.17       0.042
  WS02006287           JUNCTION      0.00   413.19     0  03:01           0        2.17       0.033
  WSF200               JUNCTION      0.00   773.64     0  03:10           0        7.94       0.026
  HS02004901           JUNCTION     20.36    20.36     0  03:01      0.0901      0.0904       1.991
  HS02004881           JUNCTION      7.95    84.19     0  03:01      0.0378        0.41       0.101
  HS02004876           JUNCTION     14.96    76.75     0  03:01      0.0728       0.373       0.148
  HS02004870           JUNCTION     14.89    62.15     0  03:01      0.0716         0.3       0.037
  HS02004862           JUNCTION     15.28    47.68     0  03:01      0.0788       0.229       0.077
  HS02004856           JUNCTION     11.18    32.72     0  03:01      0.0539       0.152       0.962
  HS02004852           JUNCTION      0.00    21.94     0  03:01           0      0.0979       0.059
  HS02004848           JUNCTION     34.61    34.61     0  03:01       0.174       0.174       0.028
  HS02004842           JUNCTION      0.00    12.41     0  03:01           0      0.0895      16.998
  HS02004837           JUNCTION     31.84    43.94     0  03:01       0.303        0.38       0.214
  HS02004830           JUNCTION      0.15    43.85     0  03:01     0.00423        0.37       0.334
  HS02004824           JUNCTION     42.39    85.90     0  03:01       0.225       0.594       0.091
  HS02004817           JUNCTION      0.60    86.28     0  03:01      0.0169        0.61       2.809
  HS02004807           JUNCTION     27.35   112.30     0  03:01       0.131       0.725       0.605
  HS02004802           JUNCTION      0.00   111.36     0  03:01           0       0.723       0.547
  HS02004799           JUNCTION     22.08   258.91     0  03:01       0.107        1.24       0.223
  HS02004792           JUNCTION    102.90   237.99     0  03:01        0.47        1.14       0.036
  HS02004788           JUNCTION     34.16   135.92     0  03:01       0.199       0.669       0.058
  HS02004785           JUNCTION      0.15   103.52     0  03:01     0.00423       0.471       0.106
  HS02004777           JUNCTION      0.03   104.15     0  03:01    0.000846       0.472       1.115
  HS02004770           JUNCTION     85.35   105.10     0  03:01       0.385       0.473       0.659
  HS02004480           JUNCTION      0.00   302.42     0  03:01           0        1.46       0.077
  HS02004479           JUNCTION      0.00    44.91     0  03:02           0       0.232       0.317
  HS02004478           JUNCTION      0.00   413.05     0  03:01           0        2.17       0.014
  YS02001745           JUNCTION    336.84   367.00     0  02:27        2.69         2.7       0.415
  YS02001748           JUNCTION      0.04   534.96     0  02:27     0.00127        2.69       0.802
  YS02001751           JUNCTION      0.01   345.91     0  02:17     0.00031        2.65       0.887
  YS02001754           JUNCTION      0.26   340.07     0  03:00     0.00733        2.64       0.952
  YS02001762           JUNCTION      0.00   291.73     0  02:38           0        1.83       1.178
  YS02001765           JUNCTION      0.00   291.37     0  02:38           0        1.84       1.344
  YS02001767           JUNCTION      0.54   291.04     0  02:38      0.0151        1.86       1.946
  YS02001770           JUNCTION    415.94   604.37     0  03:04        3.01        3.45       0.918
  YS02001774           JUNCTION      0.00   604.79     0  03:04           0        2.01       1.263
  YS02001779           JUNCTION      0.01   604.55     0  03:04    0.000141        1.98       0.792
  YS02001882           JUNCTION      0.00    32.78     0  02:35           0      0.0179      14.860
  YS02001884           JUNCTION      0.00    65.19     0  02:35           0      0.0551      12.923
  YS02001759           JUNCTION    399.49   571.94     0  02:38        2.78        4.14       0.555
  YS02001887           JUNCTION    494.68   494.82     0  03:01        3.19        3.22       0.270
  YS02001890           JUNCTION      0.00   494.74     0  03:01           0        3.18       0.297
  YS02001898           JUNCTION      0.00   494.79     0  03:01           0        3.16       0.104
  YS02001901           JUNCTION      0.00   494.94     0  03:01           0        3.16       0.223
  YS02001904           JUNCTION      0.00   494.88     0  03:01           0        3.16       0.208
  YS02001907           JUNCTION      0.00   940.69     0  03:01           0        7.02       0.346
  YS02001910           JUNCTION      0.00   449.64     0  03:00           0        3.87       0.310
  YS02001915           JUNCTION    296.36   449.09     0  03:00        2.25         3.9       0.161
  YS02001918           JUNCTION      0.00   209.78     0  03:30           0        1.65       0.121
  YS02001619           JUNCTION    290.53   290.53     0  03:01        2.24        2.24       0.546
  YS02001629           JUNCTION      0.00   201.73     0  02:17           0        1.69       1.732
  YS02001641           JUNCTION      0.00   398.01     0  02:29           0        4.25       0.499
  YS02001644           JUNCTION    321.01  1395.26     0  03:01        2.59        10.9       0.249
  YS02001652           JUNCTION      0.00   372.91     0  03:01           0        2.34       1.003
  YS02001655           JUNCTION      0.15   375.04     0  02:18     0.00434        2.37       1.032
  YS02001920           JUNCTION      2.87   203.31     0  02:46      0.0809        1.64       0.187
  YS02001923           JUNCTION      0.04   222.27     0  02:46     0.00106        1.56       0.052
  YS02001926           JUNCTION      0.05   170.40     0  02:46     0.00147        1.56       0.211
  YS02001929           JUNCTION    151.13   151.13     0  03:01        1.56        1.56       0.036
  YS02001658           JUNCTION      0.00   598.05     0  02:23           0        2.41       0.969
  YS02001661           JUNCTION      0.00   622.51     0  02:47           0        2.78      -0.373
  YS02001664           JUNCTION    361.21   361.21     0  03:01        2.38        2.76       0.242
  YS02001622           JUNCTION      0.00   290.86     0  03:01           0        2.22       1.447
  YS02001633           JUNCTION    326.74   395.37     0  02:34        2.66        4.31       0.748
  YS02001649           JUNCTION      0.00   822.27     0  02:35           0        6.33       0.583
  YS02001757           JUNCTION      0.00  1578.76     0  02:36           0        8.73       1.069
  YS02001895           JUNCTION      0.00   494.96     0  03:01           0        3.17       0.167
  YS02001625           JUNCTION      0.00   290.57     0  03:01           0        2.19       1.817
  YS02163301           JUNCTION      0.00   201.49     0  02:24           0        1.67       1.472
  YS02163601           JUNCTION      0.11   396.25     0  02:34      0.0031        4.27       0.708
  YS02164001           JUNCTION      0.00   396.40     0  02:34           0        4.25       0.478
  YS02001647           JUNCTION      0.00   704.05     0  03:04           0        5.59       0.509
  YSB1154              JUNCTION     26.18    26.18     0  03:01       0.129        0.13       1.130
  YSB6556              JUNCTION      0.00    25.82     0  03:01           0        0.13       0.969
  YSB1174              JUNCTION     20.52    20.52     0  03:01      0.0948      0.0952       1.369
  YSB1171              JUNCTION      0.00    45.30     0  03:01           0       0.231       2.821
  YS02006553           JUNCTION      0.00   703.61     0  03:31           0        6.56       0.239
  YS02006561           JUNCTION      0.00   982.41     0  03:00           0        9.44       0.010
  YS02006556           JUNCTION      0.00   703.55     0  03:31           0        6.57       0.178
  YS02006558           JUNCTION    433.40   982.97     0  03:00        2.93        9.47       0.052
  YS02001783           JUNCTION      0.00   982.43     0  03:00           0        9.44       0.025
  YS02001784           JUNCTION      1.06   983.61     0  03:00      0.0299        9.47       0.038
  YS02001786           JUNCTION      0.06   983.63     0  03:00     0.00159        9.47       0.035
  YS02001788           JUNCTION      0.07   983.55     0  03:00       0.002        9.46       0.025
  YS02001790           JUNCTION      0.15   983.79     0  03:00     0.00437        9.47       0.016
  YS02001791           JUNCTION      0.00   983.96     0  03:00           0        9.47       0.011
  YS02001793           JUNCTION      0.00   984.20     0  03:00           0        9.47      -0.029
  WSC                  OUTFALL       0.00  1169.74     0  03:13           0        18.2       0.000
  JK-storage           STORAGE       0.00   983.83     0  03:00           0        9.62     -10.010
  CC-storage           STORAGE       0.00  1578.49     0  02:36           0        6.12       1.063
  XR-storage           STORAGE     844.76   844.76     0  03:01        11.8        12.4      -0.001
  
  
  **********************
  Node Surcharge Summary
  **********************
  
  Surcharging occurs when water rises above the top of the highest conduit.
  ---------------------------------------------------------------------
                                               Max. Height   Min. Depth
                                   Hours       Above Crown    Below Rim
  Node                 Type      Surcharged         Meters       Meters
  ---------------------------------------------------------------------
  WS02004401           JUNCTION        0.26          0.085        1.575
  WS02004402           JUNCTION        0.31          0.091        1.649
  WS02004403           JUNCTION        0.33          0.085        1.945
  WS02004404           JUNCTION        0.56          0.142        2.638
  WS02004406           JUNCTION        0.48          0.092        2.358
  WS02004405           JUNCTION        0.52          0.123        2.677
  WS02006109           JUNCTION        2.28          0.412        1.408
  WS02006110           JUNCTION        1.22          0.179        1.671
  WS02006112           JUNCTION        1.53          0.350        1.330
  WS02006115           JUNCTION        0.05          0.024        2.226
  WS02006116           JUNCTION        0.08          0.033        2.257
  WS02006230           JUNCTION        0.74          0.356        1.214
  WS02006231           JUNCTION        0.98          0.433        1.097
  WS02006232           JUNCTION        2.05          0.597        0.883
  WS02006234           JUNCTION        1.24          0.541        0.699
  WS02006235           JUNCTION        1.44          0.609        0.681
  WS02006238           JUNCTION        1.51          0.624        0.806
  WS02006240           JUNCTION        1.10          0.554        0.836
  WS02006242           JUNCTION        1.15          0.623        0.197
  WS02006243           JUNCTION        0.88          0.620        0.150
  WS02006245           JUNCTION        0.81          0.781        0.069
  WS02006247           JUNCTION        0.82          0.537        0.223
  WS02006248           JUNCTION        0.67          0.370        0.010
  WS02006249           JUNCTION        0.73          0.390        0.000
  WS02006239           JUNCTION        1.20          0.565        0.725
  WS02006251           JUNCTION        0.35          0.283        0.897
  WS02006252           JUNCTION        0.67          0.470        0.630
  WS02006253           JUNCTION        0.36          0.666        1.814
  WS02006256           JUNCTION        6.99          2.050        0.000
  WS02006228           JUNCTION        2.23          0.518        1.682
  YS02001748           JUNCTION        5.30          0.545        0.645
  YS02001751           JUNCTION        5.47          1.084        0.116
  YS02001754           JUNCTION        5.69          0.949        0.201
  YS02001762           JUNCTION        5.87          1.041        0.109
  YS02001765           JUNCTION        5.84          0.985        0.115
  YS02001767           JUNCTION        5.81          0.948        0.082
  YS02001770           JUNCTION        5.80          0.895        0.025
  YS02001774           JUNCTION        5.86          0.984        0.066
  YS02001779           JUNCTION        5.67          0.680        0.000
  YS02001882           JUNCTION        0.90          0.618        0.212
  YS02001884           JUNCTION        0.93          0.661        0.209
  YS02001759           JUNCTION        5.89          1.078        0.132
  YS02001887           JUNCTION        1.00          0.745        0.205
  YS02001890           JUNCTION        1.02          0.760        0.000
  YS02001898           JUNCTION        0.87          0.528        0.212
  YS02001901           JUNCTION        0.96          0.673        0.197
  YS02001904           JUNCTION        0.94          0.636        0.214
  YS02001907           JUNCTION        1.76          0.950        0.000
  YS02001910           JUNCTION        1.07          0.777        0.323
  YS02001915           JUNCTION        0.89          0.586        0.414
  YS02001918           JUNCTION        0.71          0.255        0.555
  YS02001619           JUNCTION        5.47          0.610        0.000
  YS02001629           JUNCTION        5.48          0.470        0.000
  YS02001641           JUNCTION        5.85          0.934        0.166
  YS02001644           JUNCTION        5.85          0.920        0.000
  YS02001652           JUNCTION        5.73          1.098        0.032
  YS02001655           JUNCTION        5.50          1.200        0.000
  YS02001920           JUNCTION        0.74          0.332        0.808
  YS02001658           JUNCTION        5.33          1.031        0.269
  YS02001661           JUNCTION        0.19          0.952        0.438
  YS02001622           JUNCTION        5.50          0.620        0.000
  YS02001633           JUNCTION        5.83          0.926        0.134
  YS02001649           JUNCTION        5.87          1.050        0.000
  YS02001757           JUNCTION        5.98          1.179        0.031
  YS02001895           JUNCTION        0.88          0.564        0.186
  YS02001625           JUNCTION        5.76          0.780        0.000
  YS02163301           JUNCTION        5.81          0.906        0.124
  YS02163601           JUNCTION        5.87          0.987        0.093
  YS02164001           JUNCTION        5.84          0.917        0.183
  YS02001647           JUNCTION        5.75          0.800        0.100
  YS02006553           JUNCTION        1.86          0.965        0.225
  YS02006561           JUNCTION        0.77          0.278        0.872
  YS02006556           JUNCTION        1.30          0.880        0.470
  YS02006558           JUNCTION        1.26          0.859        0.541
  YS02001783           JUNCTION        1.06          0.666        0.934
  YS02001784           JUNCTION        1.03          0.665        0.825
  YS02001786           JUNCTION        0.98          0.802        0.628
  YS02001788           JUNCTION        0.92          1.059        0.421
  YS02001790           JUNCTION        1.96          1.157        0.000
  YS02001791           JUNCTION        2.07          1.396        0.524
  YS02001793           JUNCTION        2.36          1.699        0.901
  
  
  *********************
  Node Flooding Summary
  *********************
  
  Flooding refers to all water that overflows a node, whether it ponds or not.
  --------------------------------------------------------------------------
                                                             Total   Maximum
                                 Maximum   Time of Max       Flood    Ponded
                        Hours       Rate    Occurrence      Volume     Depth
  Node                 Flooded       LPS   days hr:min    10^6 ltr    Meters
  --------------------------------------------------------------------------
  WS02006249              0.32    185.78      0  03:10       0.101     0.000
  WS02006256              3.42    805.15      0  03:06       6.038     0.000
  YS02001779              3.09    604.51      0  03:04       1.963     0.000
  YS02001890              0.01      1.26      0  03:00       0.000     0.000
  YS02001907              0.57    391.88      0  03:01       0.443     0.000
  YS02001619              0.01     24.23      0  02:27       0.000     0.000
  YS02001629              0.01     24.73      0  02:27       0.000     0.000
  YS02001644              5.07   1395.26      0  03:01       9.316     0.000
  YS02001655              0.01    222.10      0  02:19       0.000     0.000
  YS02001622              0.01     12.17      0  02:27       0.000     0.000
  YS02001649              0.03     34.05      0  02:50       0.001     0.000
  YS02001625              1.19    235.71      0  03:01       0.466     0.000
  YS02001790              0.01    208.86      0  04:31       0.000     0.000
  JK-storage              0.99    818.76      0  02:39       1.165     0.000
  XR-storage              3.14    464.74      0  03:01       1.990     0.000
  
  
  **********************
  Storage Volume Summary
  **********************
  
  --------------------------------------------------------------------------------------------------
                         Average     Avg  Evap Exfil       Maximum     Max    Time of Max    Maximum
                          Volume    Pcnt  Pcnt  Pcnt        Volume    Pcnt     Occurrence    Outflow
  Storage Unit           1000 m3    Full  Loss  Loss       1000 m3    Full    days hr:min        LPS
  --------------------------------------------------------------------------------------------------
  JK-storage               0.156      54     0     0         0.291     100       0  02:01     983.00
  CC-storage               3.203      20     0     0         3.970      25       0  03:03     400.00
  XR-storage               0.789      85     0     0         0.926     100       0  02:50     380.00
  
  
  ***********************
  Outfall Loading Summary
  ***********************
  
  ---------------------------------------------------------------------------------------------------------------------------------
                         Flow       Avg       Max       Total         Total         Total         Total         Total         Total
                         Freq      Flow      Flow      Volume           COD            SS            TN            TP         NH4-N
  Outfall Node           Pcnt       LPS       LPS    10^6 ltr            kg            kg            kg            kg            kg
  ---------------------------------------------------------------------------------------------------------------------------------
  WSC                  100.00    713.33   1169.74      18.179      2199.142      3748.702       147.641        17.520        89.726
  ---------------------------------------------------------------------------------------------------------------------------------
  System               100.00    713.33   1169.74      18.179      2199.142      3748.702       147.641        17.520        89.726
  
  
  ********************
  Link Flow Summary
  ********************
  
  -----------------------------------------------------------------------------
                                 Maximum  Time of Max   Maximum    Max/    Max/
                                  |Flow|   Occurrence   |Veloc|    Full    Full
  Link                 Type          LPS  days hr:min     m/sec    Flow   Depth
  -----------------------------------------------------------------------------
  WS02003066WSF200     CONDUIT    773.64     0  03:10      2.91    0.13    0.29
  WS02006287WS02006284 CONDUIT    413.44     0  03:02      2.04    0.19    0.30
  WS02006284WS02006280 CONDUIT    413.58     0  03:02      2.28    0.17    0.28
  WS02006280WS02006229 CONDUIT    413.62     0  03:02      3.68    0.09    0.20
  WS02006229WS02006228 CONDUIT    779.53     0  03:06      1.55    2.58    1.00
  WS02006256WS02006235 CONDUIT    259.48     0  00:48      3.67    2.75    1.00
  WS02006253WS02006251 CONDUIT    145.48     0  03:50      0.60    0.44    1.00
  WS02006252WS02006251 CONDUIT    404.33     0  05:32      3.22    1.48    1.00
  WS02006251WS02006249 CONDUIT    448.48     0  03:10      1.17    1.29    1.00
  WS02006249WS02006248 CONDUIT    416.61     0  05:40      1.10    2.28    1.00
  WS02006248WS02006247 CONDUIT    416.42     0  05:40      1.08    0.91    1.00
  WS02006247WS02006245 CONDUIT    416.53     0  05:40      1.08    3.30    1.00
  WS02006245WS02006243 CONDUIT    417.16     0  05:40      1.08    1.23    1.00
  WS02006243WS02006242 CONDUIT    417.52     0  05:40      1.08    0.89    1.00
  WS02006242WS02006240 CONDUIT    417.70     0  05:40      1.09    1.66    1.00
  WS02006240WS02006239 CONDUIT    418.81     0  05:40      1.09    1.32    1.00
  WS02006239WS02006238 CONDUIT    418.72     0  05:40      1.09    1.34    1.00
  WS02006238WS02006235 CONDUIT    420.59     0  05:40      1.09    0.94    1.00
  WS02006235WS02006234 CONDUIT    522.44     0  05:34      1.36    5.51    1.00
  WS02006234WS02006232 CONDUIT    522.24     0  05:33      1.36    1.06    1.00
  WS02006232WS02006231 CONDUIT    522.56     0  05:33      1.36    1.09    1.00
  WS02006231WS02006230 CONDUIT    522.31     0  05:33      1.36    7.92    1.00
  WS02006230WS02006229 CONDUIT    533.59     0  05:33      1.39   11.87    1.00
  WS02006228WS02006109 CONDUIT    779.39     0  03:06      1.55    3.41    1.00
  WS02006116WS02004401 CONDUIT    779.10     0  03:08      0.99    1.07    1.00
  WS02006115WS02006116 CONDUIT    778.75     0  03:07      1.03    1.00    1.00
  WS02006113WS02006111 CONDUIT    770.64     0  03:06      2.58    0.92    0.72
  WS02006112WS02006115 CONDUIT    778.21     0  03:07      0.99    0.46    1.00
  WS02006111WS02006112 CONDUIT    770.70     0  03:07      1.72    0.37    0.84
  WS02006110WS02006113 CONDUIT    780.69     0  03:06      1.70    0.71    0.87
  WS02006109WS02006110 CONDUIT    780.72     0  03:06      1.55    1.50    1.00
  WS02004411WS02004412 CONDUIT    773.24     0  03:09      1.12    1.10    0.82
  WS02004401WS02004402 CONDUIT    779.04     0  03:08      0.99    0.94    1.00
  WS02004413WS02003067 CONDUIT    773.12     0  03:09      1.36    0.33    0.68
  WS02004412WS02004413 CONDUIT    773.09     0  03:09      1.05    0.52    0.89
  WS02004410WS02004411 CONDUIT    773.99     0  03:09      1.11    1.06    0.83
  WS02004409WS02004410 CONDUIT    775.92     0  03:08      1.12    1.00    0.83
  WS02004407WS02004409 CONDUIT    778.50     0  03:08      1.61    0.28    0.59
  WS02004406WS02004407 CONDUIT    779.19     0  03:08      1.37    0.35    0.68
  WS02004405WS02004406 CONDUIT    779.43     0  03:08      0.99    1.54    1.00
  WS02004404WS02004405 CONDUIT    779.76     0  03:08      1.02    7.64    1.00
  WS02004403WS02004404 CONDUIT    779.38     0  03:08      0.99    0.56    1.00
  WS02004402WS02004403 CONDUIT    779.18     0  03:08      0.99    1.12    1.00
  WS02004139WS02001211 CONDUIT    382.15     0  03:28      0.90    0.48    0.62
  WS02004138WS02004139 CONDUIT    394.13     0  00:00      3.62    0.08    0.45
  WS02003067WS02003066 CONDUIT    773.51     0  03:09      1.48    0.25    0.47
  WS02001213WS02003059 CONDUIT    395.60     0  03:27      0.89    0.65    0.83
  WS02001212WS02001213 CONDUIT    393.22     0  03:28      1.32    0.61    0.52
  WS02001211WS02001212 CONDUIT    391.50     0  03:28      0.78    0.30    0.68
  WS02003072WS02003073 CONDUIT   1167.36     0  03:12      1.87    2.52    0.54
  WS02003069WS02003072 CONDUIT   1167.12     0  03:11      1.74    0.56    0.57
  WS02003060WS02003069 CONDUIT   1166.85     0  03:11      1.96    0.46    0.52
  WS02003059WS02003060 CONDUIT    398.86     0  03:26      0.95    0.26    0.73
  HS02004901HS02004770 CONDUIT     20.52     0  03:01      0.07    0.08    0.42
  HS02004876HS02004881 CONDUIT     76.54     0  03:01      0.95    0.81    0.12
  HS02004870HS02004876 CONDUIT     61.90     0  03:01      0.65    0.04    0.14
  HS02004842HS02004848 CONDUIT     12.41     0  03:01      0.06    0.01    0.31
  HS02004837HS02004842 CONDUIT     12.98     0  03:02      0.42    0.01    0.32
  HS02004830HS02004837 CONDUIT     43.70     0  03:01      0.57    0.04    0.11
  HS02004824HS02004830 CONDUIT     43.66     0  03:01      0.59    0.06    0.11
  HS02004817HS02004824 CONDUIT     85.68     0  03:01      0.26    0.04    0.48
  HS02004770HS02004777 CONDUIT    104.12     0  03:01      0.35    0.19    0.43
  HS02004799HS02004480 CONDUIT    258.28     0  03:01      0.83    0.33    0.44
  HS02004792HS02004799 CONDUIT    237.01     0  03:01      0.94    0.15    0.36
  HS02004788HS02004792 CONDUIT    135.42     0  03:01      1.06    0.09    0.18
  HS02004785HS02004788 CONDUIT    103.21     0  03:02      0.71    0.78    0.21
  HS02004777HS02004785 CONDUIT    103.37     0  03:01      0.42    0.13    0.35
  HS02004480HS02004478 CONDUIT    302.27     0  03:01      1.26    1.27    0.34
  HS02004479HS02004480 CONDUIT     46.30     0  03:02      0.32    0.04    0.43
  HS02004862HS02004870 CONDUIT     47.43     0  03:01      0.66    0.05    0.10
  HS02004848HS02004852 CONDUIT     21.94     0  03:01      0.45    0.02    0.07
  HS02004856HS02004862 CONDUIT     32.47     0  03:01      0.48    0.03    0.10
  HS02004852HS02004856 CONDUIT     21.85     0  03:02      0.25    0.02    0.13
  HS02004802HS02004478 CONDUIT    111.51     0  03:02      0.45    0.10    0.36
  HS02004478WS02006287 CONDUIT    413.19     0  03:01      1.75    0.12    0.26
  HS02004817HS02004807 CONDUIT     86.13     0  03:01      0.19    0.05    0.63
  HS02004807HS02004802 CONDUIT    111.36     0  03:01      0.38    0.21    0.42
  YS02001759YS02001757 CONDUIT    571.45     0  02:39      0.73    0.41    1.00
  YS02001762YS02001759 CONDUIT    291.71     0  02:38      0.37    0.34    1.00
  YS02001765YS02001762 CONDUIT    291.73     0  02:38      0.37    0.27    1.00
  YS02001770YS02001767 CONDUIT    290.50     0  02:38      0.37    1.15    1.00
  YS02001774YS02001770 CONDUIT    604.79     0  03:04      0.77    0.39    1.00
  YS02001779YS02001774 CONDUIT    604.54     0  03:04      0.77    0.30    1.00
  YS02001649YS02001757 CONDUIT    823.46     0  02:35      1.05    0.50    1.00
  YS02001767YS02001765 CONDUIT    291.37     0  02:38      0.37    0.37    1.00
  YS02006561YS02001783 CONDUIT    982.43     0  03:00      2.15    0.51    1.00
  YS02001783YS02001784 CONDUIT    982.55     0  03:00      1.95    1.35    1.00
  YS02001784YS02001785 CONDUIT    983.57     0  03:00      1.96    2.29    1.00
  YS02001788YS02001790 CONDUIT    983.63     0  03:00      2.44    0.72    1.00
  YS02001790YS02001791 CONDUIT    983.96     0  03:00      2.90    1.07    1.00
  YS02001791YS02001793 CONDUIT    984.20     0  03:00      5.76    0.42    1.00
  YS02001910YS02001907 CONDUIT    449.45     0  03:00      0.57    0.25    1.00
  YS02001786YS02001788 CONDUIT    983.48     0  03:00      2.31    1.89    1.00
  YS02001915YS02001910 CONDUIT    449.64     0  03:00      0.59    0.22    1.00
  YS02001918YS02001915 CONDUIT    246.38     0  03:31      0.44    0.14    1.00
  YS02001923YS02001920 CONDUIT    200.44     0  02:46      0.71    0.09    1.00
  YS02001926YS02001923 CONDUIT    222.23     0  02:46      0.83    0.32    0.88
  YS02001929YS02001926 CONDUIT    170.35     0  02:46      0.89    0.08    0.78
  YS02001920YS02001918 CONDUIT    209.78     0  03:30      0.70    0.20    1.00
  YS02001629YS02163301 CONDUIT    201.49     0  02:24      0.26    0.25    1.00
  YS02001619YS02001622 CONDUIT    290.86     0  03:01      0.61    0.43    1.00
  YS02001622YS02001625 CONDUIT    290.57     0  03:01      0.37    0.16    1.00
  YS02001625YS02001629 CONDUIT    201.73     0  02:17      0.26    0.10    1.00
  YS02163301YS02001633 CONDUIT    202.05     0  02:24      0.26    0.19    1.00
  YS02163601YS02164001 CONDUIT    396.40     0  02:34      0.50    0.35    1.00
  YS02164001YS02001641 CONDUIT    398.01     0  02:29      0.51    0.54    1.00
  YS02001641YS02001644 CONDUIT    400.87     0  02:29      0.51    1.30    1.00
  YS02001647YS02001649 CONDUIT    704.05     0  03:04      0.90    0.37    1.00
  YS02006553YS02006556 CONDUIT    703.55     0  03:31      0.90    0.60    1.00
  YS02006556YS02006558 CONDUIT    703.91     0  03:31      0.90    0.56    1.00
  YSB6556YSB1171       CONDUIT     25.75     0  03:03      0.09    0.03    0.70
  YS02001907YS02006553 CONDUIT    703.61     0  03:31      0.78    0.83    1.00
  YS02006558YS02006561 CONDUIT    982.41     0  03:00      3.47    2.17    1.00
  YS02001633YS02163601 CONDUIT    396.14     0  02:34      0.50    0.42    1.00
  YS02001644YS02001647 CONDUIT    704.18     0  03:04      0.90    0.41    1.00
  YS02001745YS02001748 CONDUIT    534.91     0  02:27      1.47    0.21    0.96
  YS02001748YS02001751 CONDUIT    345.90     0  02:17      1.06    0.17    1.00
  YS02001751YS02001754 CONDUIT    339.81     0  03:00      0.92    0.16    1.00
  YS02001754YS02001757 CONDUIT    340.01     0  03:01      0.43    0.14    1.00
  YS02001882YS02001884 CONDUIT     32.78     0  02:35      0.13    0.04    1.00
  YS02001884YS02001887 CONDUIT     65.19     0  02:35      0.09    0.09    1.00
  YS02001890YS02001895 CONDUIT    494.96     0  03:01      0.63    0.23    1.00
  YS02001895YS02001898 CONDUIT    494.79     0  03:01      0.63    0.86    1.00
  YS02001898YS02001901 CONDUIT    494.94     0  03:01      0.63    0.32    1.00
  YS02001901YS02001904 CONDUIT    494.88     0  03:01      0.63    0.77    1.00
  YS02001904YS02001907 CONDUIT    495.05     0  03:01      0.63    0.17    1.00
  YS02001887YS02001890 CONDUIT    494.74     0  03:01      0.63    0.85    1.00
  YS02001652YS02001649 CONDUIT    372.58     0  03:01      0.63    0.18    1.00
  YS02001655YS02001652 CONDUIT    372.91     0  03:01      0.98    0.18    1.00
  YS02001658YS02001655 CONDUIT    374.89     0  02:18      1.22    0.16    1.00
  YS02001661YS02001658 CONDUIT    598.05     0  02:23      1.55    0.23    1.00
  YS02001664YS02001661 CONDUIT    622.51     0  02:47      1.43    0.20    0.77
  YSB1154YSB6556       CONDUIT     25.82     0  03:01      0.17    0.05    0.59
  YSB1174YSB1171       CONDUIT     20.14     0  03:01      0.07    0.03    0.70
  YSB1171HS02004479    CONDUIT     44.91     0  03:02      0.54    0.03    0.55
  HS02004881HS02006253 CONDUIT     84.16     0  03:01      2.17    0.02    0.52
  YS02001793JiankangQianchi CONDUIT    983.83     0  03:00     16.51    0.08    1.00
  YS02001757CaochengTiaoxuchi CONDUIT   1578.49     0  02:36      2.02    0.69    1.00
  WSF200WS02003060     CONDUIT    774.10     0  03:10      1.81    0.17    0.40
  1                    CONDUIT   1169.74     0  03:13      3.47    0.41    0.44
  CC-Pump-1            PUMP       200.00     0  03:10              1.00
  CC-Pump-2            PUMP       200.00     0  05:30              1.00
  JK-Pump-1            PUMP       300.00     0  02:10              1.00
  JK-Pump-2            PUMP       683.00     0  02:10              1.00
  XR-Pump-1            PUMP        95.00     0  00:00              1.00
  XR-Pump-2            PUMP        95.00     0  00:00              1.00
  XR-Pump-3            PUMP        95.00     0  00:00              1.00
  XR-Pump-4            PUMP        95.00     0  00:00              1.00
  
  
  ***************************
  Flow Classification Summary
  ***************************
  
  -------------------------------------------------------------------------------------
                      Adjusted    ---------- Fraction of Time in Flow Class ---------- 
                       /Actual         Up    Down  Sub   Sup   Up    Down  Norm  Inlet 
  Conduit               Length    Dry  Dry   Dry   Crit  Crit  Crit  Crit  Ltd   Ctrl  
  -------------------------------------------------------------------------------------
  WS02003066WSF200        1.00   0.01  0.04  0.00  0.00  0.95  0.00  0.00  0.64  0.00
  WS02006287WS02006284    1.00   0.03  0.02  0.00  0.57  0.38  0.00  0.00  0.62  0.00
  WS02006284WS02006280    1.00   0.04  0.00  0.00  0.00  0.00  0.00  0.96  0.00  0.00
  WS02006280WS02006229    1.00   0.04  0.00  0.00  0.00  0.00  0.00  0.95  0.01  0.00
  WS02006229WS02006228    1.00   0.00  0.00  0.00  1.00  0.00  0.00  0.00  0.00  0.00
  WS02006256WS02006235    1.00   0.02  0.00  0.00  0.98  0.00  0.00  0.00  0.00  0.00
  WS02006253WS02006251    1.00   0.01  0.02  0.00  0.96  0.00  0.01  0.00  0.00  0.00
  WS02006252WS02006251    1.00   0.22  0.00  0.00  0.06  0.00  0.72  0.00  0.00  0.00
  WS02006251WS02006249    1.00   0.00  0.00  0.00  1.00  0.00  0.00  0.00  0.31  0.00
  WS02006249WS02006248    1.00   0.00  0.00  0.00  0.86  0.00  0.13  0.00  0.00  0.00
  WS02006248WS02006247    1.00   0.01  0.00  0.00  0.98  0.00  0.00  0.01  0.17  0.00
  WS02006247WS02006245    1.00   0.01  0.00  0.00  0.96  0.00  0.00  0.03  0.00  0.00
  WS02006245WS02006243    1.00   0.01  0.00  0.00  0.93  0.00  0.00  0.06  0.02  0.00
  WS02006243WS02006242    1.00   0.01  0.00  0.00  0.97  0.00  0.00  0.02  0.17  0.00
  WS02006242WS02006240    1.00   0.01  0.01  0.00  0.97  0.00  0.00  0.00  0.00  0.00
  WS02006240WS02006239    1.00   0.02  0.00  0.00  0.94  0.00  0.00  0.03  0.01  0.00
  WS02006239WS02006238    1.00   0.02  0.00  0.00  0.98  0.00  0.00  0.00  0.03  0.00
  WS02006238WS02006235    1.00   0.02  0.00  0.00  0.98  0.00  0.00  0.00  0.00  0.00
  WS02006235WS02006234    1.00   0.02  0.00  0.00  0.96  0.00  0.02  0.00  0.00  0.00
  WS02006234WS02006232    1.00   0.02  0.00  0.00  0.98  0.00  0.00  0.00  0.01  0.00
  WS02006232WS02006231    1.00   0.02  0.00  0.00  0.97  0.00  0.00  0.00  0.00  0.00
  WS02006231WS02006230    1.00   0.02  0.00  0.00  0.50  0.00  0.47  0.00  0.00  0.00
  WS02006230WS02006229    1.00   0.00  0.00  0.00  0.99  0.00  0.00  0.01  0.00  0.00
  WS02006228WS02006109    1.00   0.00  0.00  0.00  1.00  0.00  0.00  0.00  0.00  0.00
  WS02006116WS02004401    1.00   0.03  0.00  0.00  0.97  0.00  0.00  0.00  0.00  0.00
  WS02006115WS02006116    1.00   0.03  0.00  0.00  0.97  0.00  0.00  0.00  0.00  0.00
  WS02006113WS02006111    1.00   0.02  0.00  0.00  0.02  0.97  0.00  0.00  0.23  0.00
  WS02006112WS02006115    1.00   0.02  0.01  0.00  0.97  0.00  0.00  0.00  0.00  0.00
  WS02006111WS02006112    1.00   0.02  0.00  0.00  0.98  0.00  0.00  0.00  0.85  0.00
  WS02006110WS02006113    1.00   0.00  0.01  0.00  0.98  0.00  0.00  0.00  0.00  0.00
  WS02006109WS02006110    1.00   0.00  0.00  0.00  0.99  0.00  0.00  0.00  0.00  0.00
  WS02004411WS02004412    1.00   0.04  0.00  0.00  0.96  0.00  0.00  0.00  0.00  0.00
  WS02004401WS02004402    1.00   0.03  0.00  0.00  0.97  0.00  0.00  0.00  0.00  0.00
  WS02004413WS02003067    1.00   0.04  0.00  0.00  0.00  0.00  0.95  0.00  0.00  0.00
  WS02004412WS02004413    1.00   0.04  0.00  0.00  0.96  0.00  0.00  0.00  0.00  0.00
  WS02004410WS02004411    1.00   0.04  0.00  0.00  0.96  0.00  0.00  0.00  0.00  0.00
  WS02004409WS02004410    1.00   0.04  0.00  0.00  0.96  0.00  0.00  0.00  0.00  0.00
  WS02004407WS02004409    1.00   0.04  0.00  0.00  0.96  0.00  0.00  0.00  0.87  0.00
  WS02004406WS02004407    1.00   0.00  0.04  0.00  0.96  0.00  0.00  0.00  0.00  0.00
  WS02004405WS02004406    1.00   0.00  0.00  0.00  1.00  0.00  0.00  0.00  0.04  0.00
  WS02004404WS02004405    1.00   0.00  0.00  0.00  1.00  0.00  0.00  0.00  0.01  0.00
  WS02004403WS02004404    1.00   0.00  0.03  0.00  0.97  0.00  0.00  0.00  0.00  0.00
  WS02004402WS02004403    1.00   0.03  0.00  0.00  0.97  0.00  0.00  0.00  0.00  0.00
  WS02004139WS02001211    1.00   0.00  0.00  0.00  1.00  0.00  0.00  0.00  0.00  0.00
  WS02004138WS02004139    1.00   0.00  0.00  0.00  1.00  0.00  0.00  0.00  1.00  0.00
  WS02003067WS02003066    1.00   0.05  0.00  0.00  0.95  0.00  0.00  0.00  0.00  0.00
  WS02001213WS02003059    1.00   0.00  0.00  0.00  1.00  0.00  0.00  0.00  0.00  0.00
  WS02001212WS02001213    1.00   0.00  0.00  0.00  0.93  0.00  0.07  0.00  0.00  0.00
  WS02001211WS02001212    1.00   0.00  0.00  0.00  1.00  0.00  0.00  0.00  0.00  0.00
  WS02003072WS02003073    1.00   0.00  0.00  0.00  0.00  0.00  0.00  1.00  0.00  0.00
  WS02003069WS02003072    1.00   0.00  0.00  0.00  1.00  0.00  0.00  0.00  0.11  0.00
  WS02003060WS02003069    1.00   0.00  0.00  0.00  0.99  0.01  0.00  0.00  0.09  0.00
  WS02003059WS02003060    1.00   0.00  0.00  0.00  1.00  0.00  0.00  0.00  0.00  0.00
  HS02004901HS02004770    1.00   0.04  0.00  0.00  0.96  0.00  0.00  0.00  0.00  0.00
  HS02004876HS02004881    1.00   0.01  0.00  0.00  0.92  0.07  0.00  0.00  0.00  0.00
  HS02004870HS02004876    1.00   0.00  0.00  0.00  1.00  0.00  0.00  0.00  0.95  0.00
  HS02004842HS02004848    1.00   0.00  0.04  0.00  0.96  0.00  0.00  0.00  0.55  0.00
  HS02004837HS02004842    1.00   0.00  0.00  0.00  1.00  0.00  0.00  0.00  0.11  0.00
  HS02004830HS02004837    1.00   0.00  0.00  0.00  1.00  0.00  0.00  0.00  0.99  0.00
  HS02004824HS02004830    1.00   0.00  0.00  0.00  1.00  0.00  0.00  0.00  0.00  0.00
  HS02004817HS02004824    1.00   0.00  0.00  0.00  1.00  0.00  0.00  0.00  1.00  0.00
  HS02004770HS02004777    1.00   0.00  0.04  0.00  0.96  0.00  0.00  0.00  0.02  0.00
  HS02004799HS02004480    1.00   0.00  0.01  0.00  0.95  0.00  0.04  0.00  0.00  0.00
  HS02004792HS02004799    1.00   0.00  0.00  0.00  1.00  0.00  0.00  0.00  0.98  0.00
  HS02004788HS02004792    1.00   0.00  0.00  0.00  1.00  0.00  0.00  0.00  0.98  0.00
  HS02004785HS02004788    1.00   0.00  0.00  0.00  1.00  0.00  0.00  0.00  0.00  0.00
  HS02004777HS02004785    1.00   0.00  0.00  0.00  1.00  0.00  0.00  0.00  0.12  0.00
  HS02004480HS02004478    1.00   0.04  0.00  0.00  0.66  0.00  0.00  0.30  0.00  0.00
  HS02004479HS02004480    1.00   0.01  0.00  0.00  0.99  0.00  0.00  0.00  0.11  0.00
  HS02004862HS02004870    1.00   0.00  0.00  0.00  1.00  0.00  0.00  0.00  0.03  0.00
  HS02004848HS02004852    1.00   0.04  0.00  0.00  0.96  0.00  0.00  0.00  0.62  0.00
  HS02004856HS02004862    1.00   0.00  0.05  0.00  0.95  0.00  0.00  0.00  0.83  0.00
  HS02004852HS02004856    1.00   0.04  0.00  0.00  0.96  0.00  0.00  0.00  0.85  0.00
  HS02004802HS02004478    1.00   0.04  0.00  0.00  0.96  0.00  0.00  0.00  0.02  0.00
  HS02004478WS02006287    1.00   0.05  0.00  0.00  0.75  0.20  0.00  0.00  0.64  0.00
  HS02004817HS02004807    1.00   0.00  0.04  0.00  0.96  0.00  0.00  0.00  0.01  0.00
  HS02004807HS02004802    1.00   0.04  0.00  0.00  0.95  0.00  0.00  0.01  0.00  0.00
  YS02001759YS02001757    1.00   0.00  0.00  0.00  1.00  0.00  0.00  0.00  0.16  0.00
  YS02001762YS02001759    1.00   0.00  0.00  0.00  1.00  0.00  0.00  0.00  0.03  0.00
  YS02001765YS02001762    1.00   0.00  0.00  0.00  1.00  0.00  0.00  0.00  0.13  0.00
  YS02001770YS02001767    1.00   0.00  0.00  0.00  1.00  0.00  0.00  0.00  0.00  0.00
  YS02001774YS02001770    1.00   0.00  0.04  0.00  0.96  0.00  0.00  0.00  0.02  0.00
  YS02001779YS02001774    1.00   0.00  0.00  0.00  1.00  0.00  0.00  0.00  0.18  0.00
  YS02001649YS02001757    1.00   0.00  0.00  0.00  1.00  0.00  0.00  0.00  0.16  0.00
  YS02001767YS02001765    1.00   0.00  0.00  0.00  1.00  0.00  0.00  0.00  0.00  0.00
  YS02006561YS02001783    1.00   0.06  0.00  0.00  0.39  0.55  0.00  0.00  0.49  0.00
  YS02001783YS02001784    1.00   0.00  0.06  0.00  0.94  0.00  0.00  0.00  0.00  0.00
  YS02001784YS02001785    1.00   0.00  0.00  0.00  1.00  0.00  0.00  0.00  0.17  0.00
  YS02001788YS02001790    1.00   0.00  0.00  0.00  0.43  0.57  0.00  0.00  0.38  0.00
  YS02001790YS02001791    1.00   0.00  0.00  0.00  0.39  0.61  0.00  0.00  0.45  0.00
  YS02001791YS02001793    1.00   0.00  0.00  0.00  0.42  0.58  0.00  0.00  0.03  0.00
  YS02001910YS02001907    1.00   0.00  0.00  0.00  0.99  0.00  0.00  0.01  0.12  0.00
  YS02001786YS02001788    1.00   0.00  0.00  0.00  0.41  0.59  0.00  0.00  0.00  0.00
  YS02001915YS02001910    1.00   0.00  0.00  0.00  0.99  0.01  0.00  0.00  0.15  0.00
  YS02001918YS02001915    1.00   0.00  0.00  0.00  0.99  0.00  0.00  0.00  0.55  0.00
  YS02001923YS02001920    1.00   0.00  0.00  0.00  1.00  0.00  0.00  0.00  0.84  0.00
  YS02001926YS02001923    1.00   0.00  0.02  0.00  0.15  0.00  0.83  0.00  0.00  0.00
  YS02001929YS02001926    1.00   0.00  0.04  0.00  0.96  0.00  0.00  0.00  0.77  0.00
  YS02001920YS02001918    1.00   0.00  0.00  0.00  1.00  0.00  0.00  0.00  0.00  0.00
  YS02001629YS02163301    1.00   0.05  0.00  0.00  0.95  0.00  0.00  0.00  0.00  0.00
  YS02001619YS02001622    1.00   0.04  0.00  0.00  0.96  0.00  0.00  0.00  0.00  0.00
  YS02001622YS02001625    1.00   0.04  0.00  0.00  0.96  0.00  0.00  0.00  0.04  0.00
  YS02001625YS02001629    1.00   0.04  0.02  0.00  0.92  0.00  0.02  0.00  0.00  0.00
  YS02163301YS02001633    1.00   0.00  0.05  0.00  0.95  0.00  0.00  0.00  0.00  0.00
  YS02163601YS02164001    1.00   0.00  0.02  0.00  0.98  0.00  0.00  0.00  0.00  0.00
  YS02164001YS02001641    1.00   0.00  0.02  0.00  0.98  0.00  0.00  0.00  0.06  0.00
  YS02001641YS02001644    1.00   0.00  0.00  0.00  1.00  0.00  0.00  0.00  0.00  0.00
  YS02001647YS02001649    1.00   0.00  0.05  0.00  0.95  0.00  0.00  0.00  0.01  0.00
  YS02006553YS02006556    1.00   0.00  0.00  0.00  1.00  0.00  0.00  0.00  0.03  0.00
  YS02006556YS02006558    1.00   0.00  0.00  0.00  1.00  0.00  0.00  0.00  0.00  0.00
  YSB6556YSB1171          1.00   0.01  0.03  0.00  0.96  0.00  0.00  0.00  0.00  0.00
  YS02001907YS02006553    1.00   0.00  0.01  0.00  0.99  0.00  0.00  0.00  0.00  0.00
  YS02006558YS02006561    1.00   0.06  0.00  0.00  0.15  0.79  0.00  0.00  0.49  0.00
  YS02001633YS02163601    1.00   0.00  0.00  0.00  1.00  0.00  0.00  0.00  0.15  0.00
  YS02001644YS02001647    1.00   0.00  0.05  0.00  0.95  0.00  0.00  0.00  0.00  0.00
  YS02001745YS02001748    1.00   0.00  0.00  0.00  0.90  0.01  0.00  0.09  0.04  0.00
  YS02001748YS02001751    1.00   0.00  0.00  0.00  0.97  0.03  0.00  0.00  0.15  0.00
  YS02001751YS02001754    1.00   0.00  0.00  0.00  0.94  0.00  0.00  0.06  0.02  0.00
  YS02001754YS02001757    1.00   0.00  0.00  0.00  1.00  0.00  0.00  0.00  0.18  0.00
  YS02001882YS02001884    1.00   0.05  0.00  0.00  0.95  0.00  0.00  0.00  0.00  0.00
  YS02001884YS02001887    1.00   0.02  0.02  0.00  0.97  0.00  0.00  0.00  0.00  0.00
  YS02001890YS02001895    1.00   0.00  0.05  0.00  0.95  0.00  0.00  0.00  0.00  0.00
  YS02001895YS02001898    1.00   0.05  0.00  0.00  0.94  0.00  0.01  0.00  0.00  0.00
  YS02001898YS02001901    1.00   0.05  0.00  0.00  0.95  0.00  0.00  0.00  0.01  0.00
  YS02001901YS02001904    1.00   0.05  0.00  0.00  0.95  0.00  0.00  0.00  0.00  0.00
  YS02001904YS02001907    1.00   0.00  0.05  0.00  0.95  0.00  0.00  0.00  0.00  0.00
  YS02001887YS02001890    1.00   0.00  0.00  0.00  0.99  0.00  0.01  0.00  0.00  0.00
  YS02001652YS02001649    1.00   0.00  0.00  0.00  1.00  0.00  0.00  0.00  0.16  0.00
  YS02001655YS02001652    1.00   0.00  0.00  0.00  0.94  0.00  0.00  0.06  0.02  0.00
  YS02001658YS02001655    1.00   0.00  0.04  0.00  0.92  0.03  0.00  0.00  0.08  0.00
  YS02001661YS02001658    1.00   0.04  0.00  0.00  0.90  0.05  0.00  0.00  0.08  0.00
  YS02001664YS02001661    1.00   0.04  0.00  0.00  0.91  0.05  0.00  0.00  0.19  0.00
  YSB1154YSB6556          1.00   0.04  0.00  0.00  0.96  0.00  0.00  0.00  0.01  0.00
  YSB1174YSB1171          1.00   0.01  0.01  0.00  0.97  0.00  0.00  0.00  0.00  0.00
  YSB1171HS02004479       1.00   0.01  0.00  0.00  0.99  0.00  0.00  0.00  0.10  0.00
  HS02004881HS02006253    1.00   0.01  0.00  0.00  0.47  0.03  0.00  0.49  0.31  0.00
  YS02001793JiankangQianchi    1.00   0.00  0.00  0.00  0.78  0.22  0.00  0.00  0.44  0.00
  YS02001757CaochengTiaoxuchi    1.00   0.00  0.07  0.00  0.93  0.00  0.00  0.00  0.00  0.00
  WSF200WS02003060        1.00   0.00  0.01  0.00  0.97  0.03  0.00  0.00  0.57  0.00
  1                       1.00   0.00  0.00  0.00  0.00  1.00  0.00  0.00  0.47  0.00
  
  
  *************************
  Conduit Surcharge Summary
  *************************
  
  ----------------------------------------------------------------------------
                                                           Hours        Hours 
                         --------- Hours Full --------   Above Full   Capacity
  Conduit                Both Ends  Upstream  Dnstream   Normal Flow   Limited
  ----------------------------------------------------------------------------
  WS02006229WS02006228        2.23      2.36      2.23      3.28         2.23
  WS02006256WS02006235        5.56      5.56      6.99      4.10         0.01
  WS02006253WS02006251        0.62      0.62      0.68      0.01         0.02
  WS02006252WS02006251        0.48      0.48      0.67      0.54         0.01
  WS02006251WS02006249        0.64      0.64      0.73      0.32         0.30
  WS02006249WS02006248        0.67      0.67      0.73      1.61         0.01
  WS02006248WS02006247        0.72      0.73      0.82      0.01         0.01
  WS02006247WS02006245        0.81      0.84      0.81      2.25         0.80
  WS02006245WS02006243        0.84      0.84      0.88      0.09         0.12
  WS02006243WS02006242        0.90      0.90      1.15      0.01         0.01
  WS02006242WS02006240        1.10      1.10      1.23      0.59         0.01
  WS02006240WS02006239        1.12      1.13      1.20      0.23         0.18
  WS02006239WS02006238        1.31      1.32      1.51      0.25         0.22
  WS02006238WS02006235        1.50      1.50      1.79      0.01         0.01
  WS02006235WS02006234        1.24      1.24      1.44      5.47         0.01
  WS02006234WS02006232        1.37      1.37      2.04      0.15         0.16
  WS02006232WS02006231        0.98      0.98      2.04      0.21         0.01
  WS02006231WS02006230        0.74      0.74      1.02      5.67         0.01
  WS02006230WS02006229        2.78      3.07      2.78      6.11         2.78
  WS02006228WS02006109        2.28      2.59      2.28      4.39         2.28
  WS02006116WS02004401        0.24      0.24      0.26      0.14         0.15
[...]
  YS02001765YS02001762        5.84      5.84      5.87      0.01         0.01
  YS02001770YS02001767        5.81      5.81      5.81      0.18         0.75
  YS02001774YS02001770        5.80      5.80      5.86      0.01         0.01
  YS02001779YS02001774        5.67      5.67      5.86      0.01         0.01
  YS02001649YS02001757        5.87      5.87      5.98      0.01         0.01
  YS02001767YS02001765        5.81      5.81      5.84      0.01         0.01
  YS02006561YS02001783        0.77      0.77      1.06      0.01         0.01
  YS02001783YS02001784        1.03      1.06      1.03      1.39         1.01
  YS02001784YS02001785        0.98      1.03      0.98      2.40         0.98
  YS02001788YS02001790        0.92      0.92      1.96      0.01         0.01
  YS02001790YS02001791        1.95      1.95      2.06      0.87         0.84
  YS02001791YS02001793        2.06      2.06      2.47      0.01         0.01
  YS02001910YS02001907        1.07      1.07      1.76      0.01         0.01
  YS02001786YS02001788        0.92      0.98      0.92      1.99         0.92
  YS02001915YS02001910        0.89      0.89      1.07      0.01         0.01
  YS02001918YS02001915        0.71      0.71      0.89      0.01         0.01
  YS02001923YS02001920        0.54      0.54      0.74      0.01         0.01
  YS02001920YS02001918        0.71      0.71      0.74      0.01         0.01
  YS02001629YS02163301        5.80      5.80      5.81      0.01         0.01
  YS02001619YS02001622        5.47      5.47      5.50      0.01         0.01
  YS02001622YS02001625        5.50      5.50      5.76      0.01         0.01
  YS02001625YS02001629        5.47      5.47      5.76      0.01         0.01
  YS02163301YS02001633        5.81      5.81      5.84      0.01         0.01
  YS02163601YS02164001        5.84      5.84      5.87      0.01         0.01
  YS02164001YS02001641        5.84      5.84      5.85      0.01         0.03
  YS02001641YS02001644        5.85      5.85      5.85      1.52         1.61
  YS02001647YS02001649        5.75      5.75      5.87      0.01         0.01
  YS02006553YS02006556        1.30      1.30      1.86      0.01         0.01
  YS02006556YS02006558        1.52      1.52      1.95      0.01         0.01
  YS02001907YS02006553        2.42      2.42      2.62      0.01         0.01
  YS02006558YS02006561        0.91      1.26      0.91      2.23         0.91
  YS02001633YS02163601        5.83      5.83      5.87      0.01         0.01
  YS02001644YS02001647        5.75      5.75      5.85      0.01         0.01
  YS02001745YS02001748        0.01      0.01      5.30      0.01         0.01
  YS02001748YS02001751        5.35      5.35      5.47      0.01         0.01
  YS02001751YS02001754        5.47      5.47      5.69      0.01         0.01
  YS02001754YS02001757        5.74      5.74      5.98      0.01         0.01
  YS02001882YS02001884        0.90      0.90      0.93      0.01         0.01
  YS02001884YS02001887        0.97      0.97      1.00      0.01         0.01
  YS02001890YS02001895        0.88      0.88      1.07      0.01         0.01
  YS02001895YS02001898        0.87      0.87      0.88      0.01         0.01
  YS02001898YS02001901        0.89      0.89      0.96      0.01         0.01
  YS02001901YS02001904        0.94      0.94      0.96      0.01         0.01
  YS02001904YS02001907        0.94      0.94      1.88      0.01         0.01
  YS02001887YS02001890        1.02      1.02      1.04      0.01         0.01
  YS02001652YS02001649        5.76      5.76      5.87      0.01         0.01
  YS02001655YS02001652        5.50      5.50      5.73      0.01         0.01
  YS02001658YS02001655        5.33      5.33      5.50      0.01         0.01
  YS02001661YS02001658        0.17      0.17      5.33      0.01         0.01
  YS02001664YS02001661        0.01      0.01      1.16      0.01         0.01
  HS02004881HS02006253        0.01      0.01      0.36      0.01         0.01
  YS02001793JiankangQianchi        2.36      2.36      4.96      0.01         0.01
  YS02001757CaochengTiaoxuchi        5.21      5.21      5.98      0.01         0.01
  
  
  ***************
  Pumping Summary
  ***************
  
  ---------------------------------------------------------------------------------------------------------
                                                  Min       Avg       Max     Total     Power    % Time Off
                        Percent   Number of      Flow      Flow      Flow    Volume     Usage    Pump Curve
  Pump                 Utilized   Start-Ups       LPS       LPS       LPS  10^6 ltr     Kw-hr    Low   High
  ---------------------------------------------------------------------------------------------------------
  CC-Pump-1               44.67           6      0.00    138.08    200.00     1.620      1.21    0.0    0.0
  CC-Pump-2               14.90           3      0.00    107.38    200.00     0.480      0.55    0.0    0.0
  JK-Pump-1               55.33           5      0.00    236.58    300.00     3.330     51.14    0.0    0.0
  JK-Pump-2               51.07           4      0.00    474.03    683.00     6.082     84.32    0.0   95.3
  XR-Pump-1               97.88           2      0.00     93.59     95.00     2.565     24.68    0.0    0.0
  XR-Pump-2               95.73           3      0.00     92.89     95.00     2.451     22.25    0.0    0.0
  XR-Pump-3               93.61           3      0.00     92.87     95.00     2.394     20.95    0.0    0.0
  XR-Pump-4               93.61           3      0.00     92.87     95.00     2.394     20.95    0.0    0.0
  
  
  ***************************
  Link Pollutant Load Summary
  ***************************
  
  ------------------------------------------------------------------------------------------
                                 COD            SS            TN            TP         NH4-N
  Link                            kg            kg            kg            kg            kg
  ------------------------------------------------------------------------------------------
  WS02003066WSF200           671.186      1239.293        18.381         1.648         9.778
  WS02006287WS02006284       268.031       498.152         9.346         0.943         5.213
  WS02006284WS02006280       268.514       498.929         9.392         0.949         5.243
  WS02006280WS02006229       268.478       498.860         9.390         0.948         5.242
  WS02006229WS02006228       663.618      1226.032        17.879         1.586         9.473
  WS02006256WS02006235       191.050       350.860         4.164         0.321         2.099
  WS02006253WS02006251        50.622        97.810         1.109         0.082         0.548
  WS02006252WS02006251       180.275       327.205         3.797         0.277         1.873
  WS02006251WS02006249       224.374       413.283         4.780         0.351         2.360
  WS02006249WS02006248       214.101       394.363         4.560         0.335         2.252
  WS02006248WS02006247       214.122       394.424         4.565         0.335         2.255
  WS02006247WS02006245       213.714       393.674         4.559         0.335         2.252
  WS02006245WS02006243       213.002       392.458         4.543         0.334         2.244
  WS02006243WS02006242       213.067       392.561         4.550         0.335         2.249
  WS02006242WS02006240       213.090       392.670         4.536         0.333         2.239
  WS02006240WS02006239       214.185       394.673         4.563         0.335         2.253
  WS02006239WS02006238       216.051       397.787         4.623         0.341         2.286
  WS02006238WS02006235       216.673       398.594         4.650         0.344         2.302
  WS02006235WS02006234       399.486       734.939         8.598         0.647         4.288
  WS02006234WS02006232       398.716       733.548         8.584         0.646         4.281
  WS02006232WS02006231       397.845       731.988         8.564         0.644         4.271
  WS02006231WS02006230       397.120       730.692         8.550         0.643         4.264
  WS02006230WS02006229       396.111       728.898         8.524         0.641         4.251
  WS02006228WS02006109       662.389      1223.858        17.839         1.582         9.451
  WS02006116WS02004401       673.529      1243.443        18.506         1.662         9.853
  WS02006115WS02006116       674.247      1244.685        18.543         1.666         9.874
  WS02006113WS02006111       667.570      1231.700        18.510         1.669         9.877
  WS02006112WS02006115       675.186      1246.310        18.591         1.672         9.903
  WS02006111WS02006112       666.993      1230.672        18.489         1.666         9.864
  WS02006110WS02006113       668.152      1232.704        18.537         1.672         9.892
  WS02006109WS02006110       669.639      1235.256        18.613         1.680         9.937
  WS02004411WS02004412       672.061      1240.800        18.441         1.655         9.815
  WS02004401WS02004402       672.838      1242.252        18.468         1.658         9.830
  WS02004413WS02003067       671.220      1239.357        18.386         1.649         9.781
  WS02004412WS02004413       671.852      1240.444        18.425         1.653         9.805
  WS02004410WS02004411       672.179      1241.001        18.451         1.656         9.821
  WS02004409WS02004410       672.353      1241.301        18.463         1.658         9.828
  WS02004407WS02004409       672.371      1241.333        18.467         1.658         9.831
  WS02004406WS02004407       672.241      1241.110        18.462         1.658         9.828
  WS02004405WS02004406       673.052      1242.451        18.528         1.666         9.869
  WS02004404WS02004405       672.837      1242.110        18.508         1.664         9.857
  WS02004403WS02004404       671.961      1240.745        18.415         1.652         9.798
  WS02004402WS02004403       672.385      1241.476        18.440         1.655         9.813
  WS02004139WS02001211      1386.658      2284.874       115.244        14.112        71.167
  WS02004138WS02004139      1393.030      2295.397       115.758        14.175        71.484
  WS02003067WS02003066       671.245      1239.402        18.384         1.648         9.780
  WS02001213WS02003059      1420.241      2337.906       118.676        14.544        73.321
  WS02001212WS02001213      1428.960      2352.235       119.402        14.633        73.770
  WS02001211WS02001212      1431.041      2355.612       119.586        14.656        73.885
  WS02003072WS02003073      2193.294      3739.559       147.019        17.441        89.334
  WS02003069WS02003072      2197.849      3747.021       147.405        17.488        89.574
  WS02003060WS02003069      2200.210      3750.968       147.582        17.510        89.682
  WS02003059WS02003060      1417.475      2333.281       118.469        14.520        73.195
  HS02004901HS02004770        10.269        19.475         0.195         0.015         0.091
  HS02004876HS02004881        37.315        72.572         0.843         0.062         0.416
  HS02004870HS02004876        28.158        54.623         0.678         0.051         0.338
  HS02004842HS02004848         5.466        10.276         0.115         0.008         0.053
  HS02004837HS02004842        10.073        17.583         0.584         0.067         0.347
  HS02004830HS02004837        65.635       112.696         4.556         0.546         2.785
  HS02004824HS02004830        66.385       113.899         4.628         0.555         2.829
  HS02004817HS02004824        88.201       156.966         5.083         0.584         3.051
  HS02004770HS02004777        39.293        75.459         0.819         0.055         0.377
  HS02004799HS02004480       131.399       245.347         3.680         0.335         1.932
  HS02004792HS02004799       119.078       220.645         3.497         0.327         1.853
  HS02004788HS02004792        68.393       126.849         2.388         0.235         1.309
  HS02004785HS02004788        40.730        77.754         0.969         0.074         0.471
  HS02004777HS02004785        40.057        76.661         0.909         0.067         0.434
  HS02004480HS02004478       165.936       312.562         4.243         0.374         2.195
  HS02004479HS02004480        38.144        72.972         0.884         0.079         0.462
  HS02004862HS02004870        21.014        40.114         0.536         0.043         0.270
  HS02004848HS02004852         8.057        15.279         0.167         0.011         0.077
  HS02004856HS02004862        14.071        27.338         0.284         0.019         0.133
  HS02004852HS02004856         8.064        15.289         0.167         0.011         0.077
  HS02004802HS02004478       102.877       186.870         5.162         0.575         3.055
  HS02004478WS02006287       268.230       498.488         9.362         0.945         5.224
  HS02004817HS02004807        86.881       154.849         4.956         0.568         2.972
  HS02004807HS02004802       103.103       187.223         5.194         0.580         3.075
  YS02001759YS02001757       307.658       558.538         6.175         0.428         3.018
  YS02001762YS02001759       152.915       278.576         3.250         0.229         1.609
  YS02001765YS02001762       154.235       281.822         3.298         0.234         1.636
  YS02001770YS02001767       155.709       286.453         3.168         0.211         1.543
  YS02001774YS02001770       206.513       394.745         4.029         0.267         1.950
  YS02001779YS02001774       205.813       393.318         4.121         0.281         2.014
  YS02001649YS02001757       356.294       636.088         7.253         0.499         3.499
  YS02001767YS02001765       155.888       285.582         3.351         0.238         1.665
  YS02006561YS02001783       935.797      1716.155        19.824         1.487         9.893
  YS02001783YS02001784       935.657      1715.927        19.819         1.487         9.890
  YS02001784YS02001785       942.971      1727.635        20.532         1.576        10.336
  YS02001788YS02001790       943.512      1728.491        20.603         1.586        10.382
  YS02001790YS02001791       944.505      1730.089        20.703         1.598        10.444
  YS02001791YS02001793       944.446      1729.987        20.699         1.598        10.442
  YS02001910YS02001907       330.040       599.117         8.226         0.641         4.250
  YS02001786YS02001788       943.164      1727.950        20.560         1.580        10.354
  YS02001915YS02001910       330.138       599.273         8.183         0.635         4.220
  YS02001918YS02001915       159.721       277.617         4.652         0.433         2.532
  YS02001923YS02001920       137.492       241.208         2.669         0.188         1.299
  YS02001926YS02001923       136.546       239.664         2.591         0.178         1.251
  YS02001929YS02001926       136.168       239.024         2.555         0.174         1.228
  YS02001920YS02001918       157.628       273.523         4.581         0.426         2.493
  YS02001629YS02163301       103.433       183.270         2.169         0.140         1.011
  YS02001619YS02001622       146.392       262.925         3.031         0.197         1.414
  YS02001622YS02001625       145.242       261.109         3.003         0.195         1.401
  YS02001625YS02001629       104.527       185.080         2.193         0.141         1.022
  YS02163301YS02001633       103.157       182.803         2.162         0.140         1.009
  YS02163601YS02164001       361.959       646.054         7.114         0.502         3.403
  YS02164001YS02001641       361.463       645.216         7.094         0.500         3.392
  YS02001641YS02001644       361.705       645.551         7.093         0.500         3.390
  YS02001647YS02001649       412.374       743.184         8.309         0.574         3.988
  YS02006553YS02006556       657.357      1199.895        14.227         1.094         7.175
  YS02006556YS02006558       657.276      1199.732        14.194         1.090         7.153
  YSB6556YSB1171              21.953        42.197         0.451         0.038         0.229
  YS02001907YS02006553       657.480      1200.149        14.240         1.096         7.184
  YS02006558YS02006561       935.831      1716.213        19.824         1.487         9.893
  YS02001633YS02163601       362.649       647.122         7.094         0.498         3.386
  YS02001644YS02001647       418.450       753.894         8.399         0.581         4.027
  YS02001745YS02001748       209.990       386.299         4.731         0.331         2.363
  YS02001748YS02001751       208.376       383.164         4.799         0.343         2.414
  YS02001751YS02001754       207.424       381.606         4.782         0.342         2.407
  YS02001754YS02001757       208.188       382.755         4.945         0.365         2.513
  YS02001882YS02001884         2.651         4.569         0.054         0.004         0.027
  YS02001884YS02001887         6.914        12.249         0.135         0.010         0.067
  YS02001890YS02001895       389.400       720.533         7.188         0.539         3.508
  YS02001895YS02001898       389.211       720.267         7.181         0.539         3.504
  YS02001898YS02001901       388.981       719.870         7.176         0.538         3.501
  YS02001901YS02001904       388.819       719.636         7.183         0.539         3.506
  YS02001904YS02001907       389.010       719.916         7.236         0.547         3.541
  YS02001887YS02001890       390.220       721.766         7.243         0.546         3.541
  YS02001652YS02001649       152.337       278.810         3.106         0.223         1.456
  YS02001655YS02001652       152.929       279.766         3.122         0.225         1.464
  YS02001658YS02001655       152.468       279.027         3.036         0.213         1.408
  YS02001661YS02001658       156.801       286.759         3.124         0.219         1.449
  YS02001664YS02001661       175.707       318.398         3.541         0.248         1.640
  YSB1154YSB6556              21.533        41.529         0.402         0.032         0.198
  YSB1174YSB1171              14.653        28.289         0.298         0.024         0.149
  YSB1171HS02004479           38.103        72.906         0.887         0.079         0.465
  HS02004881HS02006253        42.371        82.745         0.934         0.068         0.460
  YS02001793JiankangQianchi       944.280      1729.709        20.653         1.591        10.412
  YS02001757CaochengTiaoxuchi       512.856       923.937        10.859         0.784         5.349
  WSF200WS02003060           671.465      1239.798        18.390         1.649         9.783
  1                         2199.142      3748.702       147.641        17.520        89.726
  CC-Pump-1                  138.359       251.048         2.909         0.212         1.433
  CC-Pump-2                   41.763        75.909         0.877         0.064         0.432
  JK-Pump-1                  220.935       409.795         4.671         0.354         2.337
  JK-Pump-2                  502.509       932.185        10.590         0.801         5.292
  XR-Pump-1                  376.194       618.583        31.611         3.877        19.540
  XR-Pump-2                  348.677       574.556        28.969         3.547        17.889
  XR-Pump-3                  335.944       554.183        27.747         3.394        17.125
  XR-Pump-4                  335.944       554.183        27.747         3.394        17.125
  

  Analysis begun on:  Fri Jul  9 18:24:56 2021
  Analysis ended on:  Fri Jul  9 18:24:59 2021
  Total elapsed time: 00:00:03