
  EPA STORM WATER MANAGEMENT MODEL - VERSION 5.1 (Build 5.3.0.dev0)
  --------------------------------------------------------------

  WARNING 04: minimum elevation drop used for Conduit WS02004404WS02004405
  WARNING 03: negative offset ignored for Link YS02001904YS02001907
  
  *********************************************************
  NOTE: The summary statistics displayed in this report are
  based on results found at every computational time step,  
  not just on results from each reporting time step.
  *********************************************************
  
  ****************
  Analysis Options
  ****************
  Flow Units ............... LPS
  Process Models:
    Rainfall/Runoff ........ YES
    RDII ................... NO
    Snowmelt ............... NO
    Groundwater ............ NO
    Flow Routing ........... YES
    Ponding Allowed ........ NO
    Water Quality .......... YES
  Infiltration Method ...... HORTON
  Flow Routing Method ...... DYNWAVE
  Surcharge Method ......... EXTRAN
  Starting Date ............ 08/28/2015 08:00:00
  Ending Date .............. 08/28/2015 15:50:00
  Antecedent Dry Days ...... 8.0
  Report Time Step ......... 00:01:00
  Wet Time Step ............ 00:01:00
  Dry Time Step ............ 00:01:00
  Routing Time Step ........ 5.00 sec
  Variable Time Step ....... YES
  Maximum Trials ........... 8
  Number of Threads ........ 4
  Head Tolerance ........... 0.001500 m
  
  
  **************************        Volume         Depth
  Runoff Quantity Continuity     hectare-m            mm
  **************************     ---------       -------
  Total Precipitation ......         6.144        13.452
  Evaporation Loss .........         0.000         0.000
  Infiltration Loss ........         1.064         2.328
  Surface Runoff ...........         4.147         9.079
  Final Storage ............         0.935         2.047
  Continuity Error (%) .....        -0.020
  
  
  **************************           COD            SS            TN            TP         NH4-N
  Runoff Quality Continuity             kg            kg            kg            kg            kg
  **************************    ----------    ----------    ----------    ----------    ----------
  Initial Buildup ..........     41378.656     70582.865      1804.177       168.684      1032.807
  Surface Buildup ..........        21.799        40.924         2.400         0.218         1.395
  Wet Deposition ...........         0.000         0.000         0.000         0.000         0.000
  Sweeping Removal .........         0.000         0.000         0.000         0.000         0.000
  Infiltration Loss ........        97.311       184.943         1.849         0.130         0.881
  BMP Removal ..............         0.000         0.000         0.000         0.000         0.000
  Surface Runoff ...........      3769.819      7064.251        72.781         4.964        34.599
  Remaining Buildup ........     37531.916     63371.884      1731.919       163.806       998.709
  Continuity Error (%) .....         0.003         0.004         0.002         0.001         0.001
  
  
  **************************        Volume        Volume
  Flow Routing Continuity        hectare-m      10^6 ltr
  **************************     ---------     ---------
  Dry Weather Inflow .......         0.616         6.165
  Wet Weather Inflow .......         4.145        41.451
  Groundwater Inflow .......         0.000         0.000
  RDII Inflow ..............         0.000         0.000
  External Inflow ..........         0.102         1.024
  External Outflow .........         1.883        18.834
  Flooding Loss ............         2.521        25.210
  Evaporation Loss .........         0.000         0.000
  Exfiltration Loss ........         0.000         0.000
  Initial Stored Volume ....         0.076         0.761
  Final Stored Volume ......         0.647         6.471
  Continuity Error (%) .....        -2.256
  
  
  **************************           COD            SS            TN            TP         NH4-N
  Quality Routing Continuity            kg            kg            kg            kg            kg
  **************************    ----------    ----------    ----------    ----------    ----------
  Dry Weather Inflow .......      1541.201      2465.922       147.955        18.494        92.472
  Wet Weather Inflow .......      3768.951      7062.758        72.762         4.963        34.591
  Groundwater Inflow .......         0.000         0.000         0.000         0.000         0.000
  RDII Inflow ..............         0.000         0.000         0.000         0.000         0.000
  External Inflow ..........       183.418       293.469        17.608         2.201        11.005
  External Outflow .........      2296.966      3966.560       146.755        17.272        88.797
  Flooding Loss ............      2514.681      4680.330        64.001         5.537        33.545
  Exfiltration Loss ........         0.000         0.000         0.000         0.000         0.000
  Mass Reacted .............         0.000         0.000         0.000         0.000         0.000
  Initial Stored Mass ......         0.000         0.000         0.000         0.000         0.000
  Final Stored Mass ........       565.784       977.688        24.609         2.612        14.208
  Continuity Error (%) .....         2.114         2.011         1.243         0.923         1.099
  
  
  *************************
  Highest Continuity Errors
  *************************
  Node HS02004842 (13.41%)
  Node YS02001884 (10.93%)
  Node JK-storage (-10.37%)
  Node HS02004817 (2.53%)
  Node YSB1171 (2.46%)
  
  
  ***************************
  Time-Step Critical Elements
  ***************************
  Link WS02006252WS02006251 (59.14%)
  Link WS02006280WS02006229 (11.45%)
  Link WS02006238WS02006235 (6.90%)
  Link YS02006556YS02006558 (4.57%)
  Link YS02001793JiankangQianchi (4.10%)
  
  
  ********************************
  Highest Flow Instability Indexes
  ********************************
  Link WS02006113WS02006111 (40)
  Link YS02163301YS02001633 (32)
  Link YS02163601YS02164001 (32)
  Link YS02001629YS02163301 (31)
  Link YS02001619YS02001622 (31)
  
  
  *************************
  Routing Time Step Summary
  *************************
  Minimum Time Step           :     0.50 sec
  Average Time Step           :     1.33 sec
  Maximum Time Step           :     5.00 sec
  Percent in Steady State     :    -0.00
  Average Iterations per Step :     4.03
  Percent Not Converging      :    17.35
  
  
  ***************************
  Subcatchment Runoff Summary
  ***************************
  
  ------------------------------------------------------------------------------------------------------------------------------
                            Total      Total      Total      Total     Imperv       Perv      Total       Total     Peak  Runoff
                           Precip      Runon       Evap      Infil     Runoff     Runoff     Runoff      Runoff   Runoff   Coeff
  Subcatchment                 mm         mm         mm         mm         mm         mm         mm    10^6 ltr      LPS
  ------------------------------------------------------------------------------------------------------------------------------
  sub0                      13.45       0.00       0.00       0.63      12.47       0.31      12.77        0.01     3.75   0.950
  sub1                      13.45       0.00       0.00       1.12      11.88       0.36      12.24        0.08    25.66   0.910
  sub2                      13.45       0.00       0.00       4.44       8.39       0.53       8.92        0.08    25.29   0.663
  sub3                      13.45       0.00       0.00       4.56       8.35       0.42       8.77        0.20    55.75   0.652
  sub4                      13.45       0.00       0.00       1.22      11.71       0.26      11.97        0.25    65.52   0.890
  sub5                      13.45       0.00       0.00       0.68      12.41       0.26      12.67        0.14    44.76   0.942
  sub7                      13.45       0.00       0.00       0.86      12.18       0.35      12.53        0.04    14.26   0.931
  sub8                      13.45       0.00       0.00       0.87      12.17       0.34      12.50        0.08    26.26   0.930
  sub9                      13.45       0.00       0.00       0.88      12.17       0.33      12.50        0.06    19.64   0.929
  sub10                     13.45       0.00       0.00       0.78      12.29       0.29      12.58        0.14    44.00   0.935
  sub11                     13.45       0.00       0.00       0.77      12.30       0.31      12.61        0.15    48.45   0.938
  sub12                     13.45       0.00       0.00       1.25      11.66       0.50      12.16        0.11    38.10   0.904
  sub14                     13.45       0.00       0.00       0.88      12.16       0.33      12.49        0.12    38.67   0.929
  sub15                     13.45       0.00       0.00       3.37       9.35       0.66      10.01        0.17    57.01   0.744
  sub16                     13.45       0.00       0.00       3.56       8.97       0.88       9.85        0.10    37.63   0.732
  sub17                     13.45       0.00       0.00       3.47       9.10       0.84       9.94        0.09    30.67   0.739
  sub22                     13.45       0.00       0.00       4.98       7.63       0.81       8.43        0.53   184.54   0.627
  sub23                     13.45       0.00       0.00       4.17       8.43       0.81       9.24        0.44   154.22   0.687
  sub60                     13.45       0.00       0.00       1.53       9.85       0.09       9.93        3.01   438.14   0.738
  sub61                     13.45       0.00       0.00       2.16       9.95       0.12      10.07        3.11   536.45   0.749
  sub62                     13.45       0.00       0.00       0.98      10.84       0.10      10.94        3.36   552.35   0.813
  sub63                     13.45       0.00       0.00       3.77       8.69       0.14       8.83        2.67   492.63   0.656
  sub64                     13.45       0.00       0.00       1.93       9.45       0.09       9.54        2.90   416.72   0.709
  sub65                     13.45       0.00       0.00       1.67       9.61       0.08       9.70        2.98   423.09   0.721
  sub66                     13.45       0.00       0.00       3.81       8.10       0.09       8.18        2.51   380.66   0.608
  sub67                     13.45       0.00       0.00       0.95      11.38       0.13      11.51        3.55   679.52   0.856
  sub68                     13.45       0.00       0.00       1.75      10.45       0.13      10.59        3.26   586.26   0.787
  sub69                     13.45       0.00       0.00       1.83      10.79       0.19      10.98        2.57   544.72   0.816
  sub70                     13.45      11.20       0.00       7.51      14.65       0.88      15.52        3.55   494.81   0.630
  sub71                     13.45       0.00       0.00       0.99      10.58       0.09      10.67        2.52   389.24   0.793
  sub72                     13.45       0.00       0.00       0.89       8.56       0.05       8.61        1.75   189.18   0.640
  1                         13.45      15.11       0.00       1.37      16.56       4.63      21.19        4.98   484.42   0.742
  2                         13.45       0.00       0.00       3.02       3.21       1.96       5.17        2.07   340.45   0.384
  
  
  ****************************
  Subcatchment Washoff Summary
  ****************************
  
  ------------------------------------------------------------------------------------------
                                 COD            SS            TN            TP         NH4-N
  Subcatchment                    kg            kg            kg            kg            kg
  ------------------------------------------------------------------------------------------
  sub0                         2.670         5.197         0.046         0.004         0.022
  sub1                        11.241        22.423         0.210         0.015         0.101
  sub2                         6.894        13.384         0.145         0.010         0.067
  sub3                        16.924        32.573         0.350         0.024         0.161
  sub4                        25.772        51.904         0.510         0.031         0.245
  sub5                        25.778        50.682         0.460         0.035         0.223
  sub7                         5.751        11.638         0.108         0.007         0.052
  sub8                         8.581        17.755         0.171         0.010         0.082
  sub9                         7.353        15.005         0.142         0.009         0.068
  sub10                       21.202        42.223         0.389         0.028         0.188
  sub11                       20.657        41.614         0.386         0.026         0.187
  sub12                       17.724        35.094         0.321         0.024         0.155
  sub14                       15.732        31.800         0.298         0.020         0.144
  sub15                       20.231        39.321         0.389         0.028         0.182
  sub16                       13.129        25.518         0.249         0.019         0.117
  sub17                       12.049        23.208         0.222         0.017         0.105
  sub22                       62.582       119.432         1.186         0.090         0.554
  sub23                       36.683        72.439         0.776         0.051         0.357
  sub60                      243.520       456.962         4.842         0.298         2.321
  sub61                      302.151       564.434         5.627         0.386         2.710
  sub62                      313.722       596.076         6.119         0.388         2.938
  sub63                      223.275       410.850         4.468         0.314         2.075
  sub64                      305.877       553.773         5.626         0.410         2.687
  sub65                      313.037       569.066         5.795         0.415         2.772
  sub66                      176.068       321.340         3.608         0.236         1.687
  sub67                      466.222       877.505         8.365         0.616         4.045
  sub68                      332.037       626.413         6.347         0.429         3.034
  sub69                      298.258       568.561         5.590         0.393         2.674
  sub70                      502.897       962.303        10.037         0.699         4.710
  sub71                      206.745       396.330         4.242         0.246         2.030
  sub72                      164.385       293.107         3.069         0.210         1.476
  1                          349.075       671.606         7.102         0.495         3.297
  2                           42.749        75.577         1.214         0.073         0.518
  ------------------------------------------------------------------------------------------
  System                    4570.974      8595.115        88.408         6.057        41.983
  
  
  ******************
  Node Depth Summary
  ******************
  
  ---------------------------------------------------------------------------------
                                 Average  Maximum  Maximum  Time of Max    Reported
                                   Depth    Depth      HGL   Occurrence   Max Depth
  Node                 Type       Meters   Meters   Meters  days hr:min      Meters
  ---------------------------------------------------------------------------------
  WS02001211           JUNCTION     0.77     0.85     5.69     0  03:07        0.85
  WS02001212           JUNCTION     0.48     0.58     5.64     0  03:06        0.58
  WS02001213           JUNCTION     0.71     0.85     5.62     0  03:05        0.85
  WS02003069           JUNCTION     0.50     0.72     5.30     0  03:05        0.72
  WS02003072           JUNCTION     0.57     0.76     5.13     0  03:06        0.76
  WS02003073           JUNCTION     0.34     0.48     4.54     0  03:06        0.48
  WS02003060           JUNCTION     0.45     0.63     5.57     0  03:05        0.63
  WS02003066           JUNCTION     0.24     0.39     5.94     0  03:04        0.39
  WS02003059           JUNCTION     0.76     0.91     5.60     0  03:05        0.91
  WS02003067           JUNCTION     0.58     0.82     6.14     0  03:03        0.82
  WS02004401           JUNCTION     0.70     1.24     7.24     0  03:02        1.23
  WS02004402           JUNCTION     0.73     1.22     7.18     0  03:02        1.22
  WS02004403           JUNCTION     0.74     1.20     7.13     0  03:02        1.19
  WS02004404           JUNCTION     0.82     1.25     7.10     0  03:02        1.24
  WS02004406           JUNCTION     0.82     1.16     6.99     0  03:02        1.16
  WS02004409           JUNCTION     0.51     0.96     6.73     0  03:03        0.96
  WS02004410           JUNCTION     0.53     0.95     6.67     0  03:03        0.95
  WS02004411           JUNCTION     0.54     0.93     6.61     0  03:03        0.93
  WS02004412           JUNCTION     0.55     0.90     6.54     0  03:03        0.90
  WS02004413           JUNCTION     0.71     1.02     6.49     0  03:03        1.02
  WS02004405           JUNCTION     0.81     1.22     7.07     0  03:01        1.21
  WS02006109           JUNCTION     0.80     1.66     8.28     0  03:02        1.65
  WS02006110           JUNCTION     0.78     1.46     8.04     0  03:02        1.43
  WS02006111           JUNCTION     0.24     0.89     7.59     0  03:02        0.88
  WS02006112           JUNCTION     0.88     1.56     7.44     0  03:02        1.55
  WS02006113           JUNCTION     0.36     0.92     7.82     0  03:02        0.92
  WS02006115           JUNCTION     0.60     1.22     7.36     0  03:02        1.21
  WS02006116           JUNCTION     0.68     1.26     7.30     0  03:02        1.25
  WS02006230           JUNCTION     0.80     1.88     8.62     0  03:02        1.87
  WS02006231           JUNCTION     0.55     1.52     8.64     0  03:02        1.51
  WS02006232           JUNCTION     0.68     1.63     8.67     0  03:02        1.61
  WS02006234           JUNCTION     0.61     1.53     8.68     0  03:02        1.51
  WS02006235           JUNCTION     0.65     1.54     8.70     0  03:02        1.53
  WS02006238           JUNCTION     0.67     1.56     8.70     0  03:02        1.54
  WS02006240           JUNCTION     0.56     1.40     8.69     0  03:02        1.40
  WS02006242           JUNCTION     0.60     1.43     8.70     0  03:02        1.42
  WS02006243           JUNCTION     0.48     1.41     8.83     0  05:32        1.27
  WS02006245           JUNCTION     0.45     1.30     8.79     0  05:32        1.21
  WS02006247           JUNCTION     0.45     1.24     8.74     0  05:32        1.19
  WS02006248           JUNCTION     0.39     1.10     8.69     0  02:56        1.10
  WS02006249           JUNCTION     0.41     1.09     8.69     0  02:55        1.09
  WS02006239           JUNCTION     0.62     1.49     8.70     0  03:02        1.48
  WS02006251           JUNCTION     0.38     1.23     8.90     0  06:50        1.12
  WS02006252           JUNCTION     0.24     0.79     9.03     0  06:50        0.68
  WS02006253           JUNCTION     0.41     1.28     8.92     0  06:50        1.15
  WS02006256           JUNCTION     1.86     2.35     9.28     0  00:52        2.35
  WS02004138           JUNCTION     0.19     0.20     7.45     0  00:00        0.19
  WS02004139           JUNCTION     0.71     0.79     5.70     0  03:07        0.79
  WS02004407           JUNCTION     0.23     0.40     6.71     0  03:03        0.40
  WS02006228           JUNCTION     0.81     1.83     8.48     0  03:02        1.82
  WS02006229           JUNCTION     0.80     1.90     8.59     0  03:02        1.89
  WS02006280           JUNCTION     0.07     0.30     8.57     0  03:05        0.30
  WS02006284           JUNCTION     0.38     0.65     9.04     0  03:02        0.64
  WS02006287           JUNCTION     0.11     0.39     9.34     0  03:02        0.39
  WSF200               JUNCTION     0.22     0.44     5.67     0  03:04        0.44
  HS02004901           JUNCTION     0.13     0.38    10.20     0  03:01        0.37
  HS02004881           JUNCTION     0.01     0.05     9.08     0  03:01        0.05
  HS02004876           JUNCTION     0.05     0.16     9.19     0  03:01        0.16
  HS02004870           JUNCTION     0.02     0.09     9.38     0  03:01        0.09
  HS02004862           JUNCTION     0.02     0.11     9.49     0  03:01        0.11
  HS02004856           JUNCTION     0.08     0.15     9.58     0  03:01        0.15
  HS02004852           JUNCTION     0.01     0.07     9.59     0  03:02        0.07
  HS02004848           JUNCTION     0.01     0.07     9.67     0  03:01        0.07
  HS02004842           JUNCTION     0.34     0.40     9.67     0  03:01        0.40
  HS02004837           JUNCTION     0.03     0.09     9.67     0  03:01        0.09
  HS02004830           JUNCTION     0.04     0.10     9.57     0  03:01        0.10
  HS02004824           JUNCTION     0.03     0.13     9.53     0  03:02        0.13
  HS02004817           JUNCTION     0.45     0.69     9.54     0  03:02        0.69
  HS02004807           JUNCTION     0.13     0.36     9.53     0  03:02        0.36
  HS02004802           JUNCTION     0.17     0.39     9.52     0  03:02        0.39
  HS02004799           JUNCTION     0.13     0.46     9.68     0  03:01        0.46
  HS02004792           JUNCTION     0.04     0.22     9.74     0  03:01        0.21
  HS02004788           JUNCTION     0.03     0.16    10.05     0  03:02        0.16
  HS02004785           JUNCTION     0.05     0.25    10.15     0  03:02        0.25
  HS02004777           JUNCTION     0.16     0.39    10.19     0  03:01        0.39
  HS02004770           JUNCTION     0.13     0.37    10.20     0  03:01        0.36
  HS02004480           JUNCTION     0.09     0.38     9.62     0  03:01        0.38
  HS02004479           JUNCTION     0.13     0.42     9.62     0  03:01        0.42
  HS02004478           JUNCTION     0.07     0.28     9.50     0  03:01        0.28
  YS02001745           JUNCTION     0.73     0.95     8.47     0  03:01        0.95
  YS02001748           JUNCTION     1.12     2.27     9.35     0  02:33        1.38
  YS02001751           JUNCTION     1.30     2.17     9.05     0  02:33        1.58
  YS02001754           JUNCTION     1.55     2.16     8.77     0  02:33        1.84
  YS02001762           JUNCTION     1.75     2.07     8.47     0  02:33        2.04
  YS02001765           JUNCTION     1.70     2.00     8.45     0  03:18        1.98
  YS02001767           JUNCTION     1.66     1.95     8.44     0  03:17        1.94
  YS02001770           JUNCTION     1.66     1.93     8.43     0  03:00        1.93
  YS02001774           JUNCTION     1.73     1.99     8.42     0  02:33        1.98
  YS02001779           JUNCTION     1.47     1.68     8.37     0  02:25        1.68
  YS02001882           JUNCTION     0.60     1.63     8.35     0  02:58        1.63
  YS02001884           JUNCTION     0.69     1.73     8.35     0  02:59        1.73
  YS02001759           JUNCTION     1.78     2.10     8.47     0  02:33        2.08
  YS02001887           JUNCTION     0.77     1.81     8.35     0  02:59        1.81
  YS02001890           JUNCTION     0.80     1.81     8.32     0  02:50        1.81
  YS02001898           JUNCTION     0.57     1.56     8.30     0  02:54        1.56
  YS02001901           JUNCTION     0.69     1.68     8.29     0  02:52        1.67
  YS02001904           JUNCTION     0.66     1.64     8.27     0  03:05        1.63
  YS02001907           JUNCTION     0.99     1.96     8.25     0  02:50        1.96
  YS02001910           JUNCTION     0.78     1.78     8.29     0  02:52        1.78
  YS02001915           JUNCTION     0.58     1.60     8.32     0  02:52        1.59
  YS02001918           JUNCTION     0.33     1.28     8.35     0  02:51        1.26
  YS02001619           JUNCTION     1.26     1.61     8.54     0  02:32        1.48
  YS02001629           JUNCTION     1.61     1.85     8.40     0  02:32        1.84
  YS02001641           JUNCTION     1.71     1.94     8.38     0  02:38        1.93
  YS02001644           JUNCTION     1.71     1.92     8.35     0  02:38        1.92
  YS02001652           JUNCTION     1.56     2.10     8.70     0  02:28        2.01
  YS02001655           JUNCTION     1.33     2.14     8.99     0  02:46        1.86
  YS02001920           JUNCTION     0.42     1.36     8.37     0  02:51        1.34
  YS02001923           JUNCTION     0.26     1.12     8.38     0  02:51        1.10
  YS02001926           JUNCTION     0.30     0.94     8.39     0  02:51        0.93
  YS02001929           JUNCTION     0.18     0.72     8.41     0  02:52        0.72
  YS02001658           JUNCTION     1.06     2.16     9.30     0  02:46        1.55
  YS02001661           JUNCTION     0.83     2.25     9.66     0  02:46        1.22
  YS02001664           JUNCTION     0.37     0.57     8.50     0  04:08        0.57
  YS02001622           JUNCTION     1.28     1.61     8.52     0  02:32        1.50
  YS02001633           JUNCTION     1.70     1.97     8.42     0  02:35        1.94
  YS02001649           JUNCTION     1.76     2.05     8.44     0  02:41        2.05
  YS02001757           JUNCTION     1.88     2.21     8.47     0  02:33        2.18
  YS02001895           JUNCTION     0.56     1.57     8.31     0  02:57        1.56
  YS02001625           JUNCTION     1.56     1.78     8.38     0  02:32        1.78
  YS02163301           JUNCTION     1.64     1.91     8.43     0  02:35        1.87
  YS02163601           JUNCTION     1.75     2.01     8.41     0  02:38        1.98
  YS02164001           JUNCTION     1.69     1.94     8.40     0  02:38        1.91
  YS02001647           JUNCTION     1.54     1.80     8.41     0  02:48        1.80
  YSB1154              JUNCTION     0.27     0.57     9.62     0  03:01        0.57
  YSB6556              JUNCTION     0.16     0.45     9.62     0  03:02        0.45
  YSB1174              JUNCTION     0.22     0.52     9.62     0  03:01        0.51
  YSB1171              JUNCTION     0.42     0.72     9.62     0  03:01        0.72
  YS02006553           JUNCTION     0.99     2.02     8.30     0  02:56        1.97
  YS02006561           JUNCTION     0.34     1.22     7.88     0  02:56        1.10
  YS02006556           JUNCTION     0.96     2.05     8.36     0  02:56        1.96
  YS02006558           JUNCTION     1.00     2.12     8.38     0  02:56        2.00
  YS02001783           JUNCTION     0.57     1.64     7.78     0  02:56        1.49
  YS02001784           JUNCTION     0.58     1.60     7.67     0  02:56        1.43
  YS02001786           JUNCTION     0.51     1.44     7.47     0  02:56        1.27
  YS02001788           JUNCTION     0.43     1.33     7.31     0  02:56        1.14
  YS02001790           JUNCTION     0.54     1.42     7.06     0  02:56        1.30
  YS02001791           JUNCTION     0.48     1.28     6.75     0  02:57        1.27
  YS02001793           JUNCTION     0.65     1.80     6.64     0  03:00        1.80
  WSC                  OUTFALL      0.34     0.48     1.15     0  03:07        0.48
  JK-storage           STORAGE      2.87     5.80     6.60     0  02:15        5.80
  CC-storage           STORAGE      1.14     1.45     8.45     0  03:16        1.45
  XR-storage           STORAGE      6.59     7.72     5.72     0  02:57        7.72
  
  
  *******************
  Node Inflow Summary
  *******************
  
  -------------------------------------------------------------------------------------------------
                                  Maximum  Maximum                  Lateral       Total        Flow
                                  Lateral    Total  Time of Max      Inflow      Inflow     Balance
                                   Inflow   Inflow   Occurrence      Volume      Volume       Error
  Node                 Type           LPS      LPS  days hr:min    10^6 ltr    10^6 ltr     Percent
  -------------------------------------------------------------------------------------------------
  WS02001211           JUNCTION      7.35   393.20     0  03:15       0.207          10       0.407
  WS02001212           JUNCTION      0.00   399.14     0  03:15           0        9.98       0.246
  WS02001213           JUNCTION      0.00   404.29     0  03:14           0        9.96       0.292
  WS02003069           JUNCTION      0.32  1332.17     0  03:05     0.00902        18.9       0.192
  WS02003072           JUNCTION      0.00  1331.87     0  03:05           0        18.9       0.230
  WS02003073           JUNCTION      1.82  1333.84     0  03:06      0.0514        18.9       0.271
  WS02003060           JUNCTION     16.53  1331.98     0  03:04       0.466        18.9       0.179
  WS02003066           JUNCTION      0.00   938.63     0  03:04           0        8.59       0.054
  WS02003059           JUNCTION      0.00   410.86     0  03:14           0        9.93       0.414
  WS02003067           JUNCTION      0.00   938.10     0  03:04           0         8.6       0.110
  WS02004401           JUNCTION      0.00   939.64     0  03:02           0        8.82       0.217
  WS02004402           JUNCTION      0.00   940.01     0  03:02           0         8.8       0.208
  WS02004403           JUNCTION      0.00   939.84     0  03:02           0        8.78       0.192
  WS02004404           JUNCTION      0.16   940.61     0  03:02     0.00457        8.77       0.139
  WS02004406           JUNCTION      0.00   940.50     0  03:02           0        8.74       0.359
  WS02004409           JUNCTION      0.00   939.65     0  03:03           0         8.7       0.181
  WS02004410           JUNCTION      0.00   938.47     0  03:03           0        8.69       0.209
  WS02004411           JUNCTION      0.00   937.81     0  03:03           0        8.67       0.218
  WS02004412           JUNCTION      0.00   937.58     0  03:03           0        8.65       0.237
  WS02004413           JUNCTION      0.00   938.03     0  03:04           0        8.63       0.353
  WS02004405           JUNCTION      0.04   940.99     0  03:02     0.00107        8.76       0.213
  WS02006109           JUNCTION      1.23   915.27     0  03:02      0.0347        8.83       0.158
  WS02006110           JUNCTION      0.00   915.63     0  03:02           0        8.82       0.179
  WS02006111           JUNCTION      0.00   915.68     0  03:03           0         8.8       0.018
  WS02006112           JUNCTION     30.67   939.38     0  03:02      0.0853        8.88       0.291
  WS02006113           JUNCTION      0.00   915.61     0  03:02           0         8.8       0.083
  WS02006115           JUNCTION      0.00   939.32     0  03:02           0        8.85       0.201
  WS02006116           JUNCTION      0.00   939.70     0  03:02           0        8.84       0.174
  WS02006230           JUNCTION     10.28   533.36     0  06:50        0.29         6.4       0.129
  WS02006231           JUNCTION      0.00   522.91     0  06:50           0        6.11       0.041
  WS02006232           JUNCTION      0.00   523.55     0  06:50           0        6.12       0.176
  WS02006234           JUNCTION      0.00   524.70     0  06:50           0        6.12       0.019
  WS02006235           JUNCTION      0.00   525.38     0  06:50           0        6.21       0.110
  WS02006238           JUNCTION      0.00   329.25     0  06:50           0        2.62       0.124
  WS02006240           JUNCTION      0.00   328.34     0  06:50           0        2.53       0.114
  WS02006242           JUNCTION      0.00   327.85     0  06:50           0         2.5       0.145
  WS02006243           JUNCTION      0.00   328.24     0  06:50           0        2.48      -0.129
  WS02006245           JUNCTION      0.00   328.60     0  06:50           0        2.48       0.315
  WS02006247           JUNCTION      0.00   335.82     0  05:30           0        2.48       0.046
  WS02006248           JUNCTION      0.00   353.10     0  05:30           0        2.48      -0.098
  WS02006249           JUNCTION      0.00   427.91     0  06:50           0        2.64       0.129
  WS02006239           JUNCTION      0.00   329.27     0  06:50           0        2.57       0.059
  WS02006251           JUNCTION      0.08   412.88     0  06:50     0.00217        2.69      -0.023
  WS02006252           JUNCTION      0.00   400.00     0  06:50           0        2.16       0.005
  WS02006253           JUNCTION      3.75   143.71     0  03:01      0.0103       0.531      -0.065
  WS02006256           JUNCTION      0.00   983.00     0  02:30           0        9.75      -0.006
  WS02004138           JUNCTION      0.00   380.00     0  00:00           0        9.86       0.069
  WS02004139           JUNCTION      0.32   394.45     0  00:00     0.00905        9.86       0.465
  WS02004407           JUNCTION      0.00   940.11     0  03:02           0        8.71       0.074
  WS02006228           JUNCTION      0.00   913.92     0  03:02           0        8.81       0.112
  WS02006229           JUNCTION      0.00   916.83     0  03:01           0        8.82       0.126
  WS02006280           JUNCTION      0.00   680.15     0  03:02           0        2.43       0.004
  WS02006284           JUNCTION      0.10   679.01     0  03:02      0.0027        2.43       0.047
  WS02006287           JUNCTION      0.00   677.65     0  03:02           0        2.43       0.030
  WSF200               JUNCTION      0.00   938.80     0  03:04           0        8.59       0.049
  HS02004901           JUNCTION     37.63    37.63     0  03:01       0.103       0.103       1.739
  HS02004881           JUNCTION     14.26   140.53     0  03:01      0.0422       0.463       0.074
  HS02004876           JUNCTION     25.66   127.64     0  03:01      0.0814       0.422       0.132
  HS02004870           JUNCTION     26.26   103.58     0  03:01      0.0799        0.34       0.034
  HS02004862           JUNCTION     25.49    79.36     0  03:01      0.0888       0.261       0.068
  HS02004856           JUNCTION     19.64    55.39     0  03:01      0.0601       0.173       0.843
  HS02004852           JUNCTION      0.00    37.84     0  03:01           0       0.113       0.053
  HS02004848           JUNCTION     55.75    55.75     0  03:01       0.197       0.197       0.027
  HS02004842           JUNCTION      0.00    16.84     0  03:01           0       0.097      15.491
  HS02004837           JUNCTION     50.35    65.69     0  03:01       0.318       0.402       0.204
  HS02004830           JUNCTION      0.15    64.79     0  03:01     0.00423       0.392       0.316
  HS02004824           JUNCTION     65.57   128.44     0  03:01       0.251       0.642       0.085
  HS02004817           JUNCTION      0.60   124.46     0  03:01      0.0169       0.658       2.599
  HS02004807           JUNCTION     48.45   165.81     0  03:01       0.147       0.788       0.554
  HS02004802           JUNCTION      0.00   165.32     0  03:04           0       0.785       0.507
  HS02004799           JUNCTION     38.67   446.03     0  03:01       0.119        1.42       0.191
  HS02004792           JUNCTION    184.82   411.82     0  03:01        0.54         1.3       0.032
  HS02004788           JUNCTION     58.68   233.42     0  03:02       0.219       0.758       0.052
  HS02004785           JUNCTION      0.15   182.20     0  03:01     0.00423        0.54       0.093
  HS02004777           JUNCTION      0.03   185.01     0  03:01    0.000846       0.541       0.971
  HS02004770           JUNCTION    154.22   188.93     0  03:01       0.441       0.542       0.577
  HS02004480           JUNCTION      0.00   517.19     0  03:01           0        1.66       0.070
  HS02004479           JUNCTION      0.00    75.43     0  03:02           0       0.258       0.286
  HS02004478           JUNCTION      0.00   677.07     0  03:02           0        2.43       0.012
  YS02001745           JUNCTION    438.14   438.14     0  03:01        3.01        3.02       0.379
  YS02001748           JUNCTION      0.04   582.76     0  02:32     0.00127        3.01       0.726
  YS02001751           JUNCTION      0.01   442.73     0  03:01     0.00031        2.98       0.800
  YS02001754           JUNCTION      0.26   443.70     0  03:01     0.00733        2.96       0.840
  YS02001762           JUNCTION      0.00   315.77     0  02:42           0        2.01       1.066
  YS02001765           JUNCTION      0.00   315.45     0  02:42           0        2.01       1.233
  YS02001767           JUNCTION      0.54   315.70     0  02:42      0.0151        2.04       1.791
  YS02001770           JUNCTION    552.50   700.55     0  03:17        3.37        4.09       0.772
  YS02001774           JUNCTION      0.00   700.52     0  03:17           0        2.76       0.929
  YS02001779           JUNCTION      0.01   700.35     0  03:17    0.000141        2.73       0.576
  YS02001882           JUNCTION      0.00    13.82     0  04:10           0       0.019      12.965
  YS02001884           JUNCTION      0.00    18.97     0  02:40           0      0.0567      12.266
  YS02001759           JUNCTION    536.49   620.94     0  02:42        3.11        4.36       0.528
  YS02001887           JUNCTION    679.97   680.58     0  03:01        3.56         3.6       0.235
  YS02001890           JUNCTION      0.00   680.09     0  03:01           0        3.55       0.261
  YS02001898           JUNCTION      0.00   517.77     0  03:03           0        3.45       0.086
  YS02001901           JUNCTION      0.00   517.87     0  03:03           0        3.45       0.201
  YS02001904           JUNCTION      0.00   517.63     0  03:01           0        3.44       0.182
  YS02001907           JUNCTION      0.00  1111.83     0  03:01           0        7.77       0.314
  YS02001910           JUNCTION      0.00   595.51     0  03:01           0        4.34       0.270
  YS02001915           JUNCTION    389.26   595.22     0  03:01        2.52        4.35       0.139
  YS02001918           JUNCTION      0.00   260.08     0  02:52           0        1.84       0.080
  YS02001619           JUNCTION    380.66   380.66     0  03:01        2.51        2.51       0.491
  YS02001629           JUNCTION      0.00   197.33     0  02:39           0        1.59       1.846
  YS02001641           JUNCTION      0.00   412.47     0  02:40           0        4.45       0.475
  YS02001644           JUNCTION    416.76  1525.39     0  03:01         2.9        11.9       0.230
  YS02001652           JUNCTION      0.00   498.07     0  03:01           0        2.62       0.914
  YS02001655           JUNCTION      0.15   497.34     0  03:01     0.00434        2.65       0.911
  YS02001920           JUNCTION      2.87   259.82     0  02:52      0.0809        1.84       0.159
  YS02001923           JUNCTION      0.04   238.76     0  02:52     0.00106        1.76       0.052
  YS02001926           JUNCTION      0.05   203.41     0  03:02     0.00147        1.75       0.199
  YS02001929           JUNCTION    189.18   189.18     0  03:01        1.75        1.75       0.036
  YS02001658           JUNCTION      0.00   636.60     0  02:29           0        2.68       0.800
  YS02001661           JUNCTION      0.00   665.92     0  02:41           0        2.94       0.046
  YS02001664           JUNCTION    492.63   492.63     0  03:01        2.67        2.93       0.223
  YS02001622           JUNCTION      0.00   380.92     0  03:01           0         2.5       1.280
  YS02001633           JUNCTION    423.29   423.29     0  03:01        2.99        4.52       0.713
  YS02001649           JUNCTION      0.00   876.91     0  02:39           0        6.91       0.544
  YS02001757           JUNCTION      0.00  1674.35     0  02:41           0        9.12       1.016
  YS02001895           JUNCTION      0.00   517.51     0  03:03           0        3.45       0.149
  YS02001625           JUNCTION      0.00   408.36     0  03:01           0        2.48       1.583
  YS02163301           JUNCTION      0.00   203.00     0  02:32           0        1.57       1.565
  YS02163601           JUNCTION      0.11   412.60     0  02:39      0.0031        4.48       0.680
  YS02164001           JUNCTION      0.00   413.09     0  02:39           0        4.46       0.460
  YS02001647           JUNCTION      0.00   807.74     0  03:18           0        6.15       0.463
  YSB1154              JUNCTION     44.76    44.76     0  03:01       0.144       0.144       1.016
  YSB6556              JUNCTION      0.00    43.28     0  03:01           0       0.145       0.870
  YSB1174              JUNCTION     38.10    38.10     0  03:01       0.106       0.107       1.221
  YSB1171              JUNCTION      0.00    76.93     0  03:01           0       0.257       2.525
  YS02006553           JUNCTION      0.00   718.74     0  02:51           0         6.8       0.229
  YS02006561           JUNCTION      0.00  1147.29     0  02:56           0          10       0.006
  YS02006556           JUNCTION      0.00   719.11     0  02:51           0        6.81       0.166
  YS02006558           JUNCTION    587.14  1148.19     0  02:56        3.28        10.1       0.050
  YS02001783           JUNCTION      0.00  1146.91     0  02:56           0          10       0.023
  YS02001784           JUNCTION      1.06  1148.27     0  02:56      0.0299        10.1       0.034
  YS02001786           JUNCTION      0.06  1148.01     0  02:56     0.00159        10.1       0.035
  YS02001788           JUNCTION      0.07  1148.43     0  02:56       0.002        10.1       0.018
  YS02001790           JUNCTION      0.15  1159.49     0  02:55     0.00437        10.1       0.011
  YS02001791           JUNCTION      0.00  1271.59     0  02:52           0        10.1       0.010
  YS02001793           JUNCTION      0.00  1219.03     0  02:54           0        10.1      -0.014
  WSC                  OUTFALL       0.00  1334.06     0  03:07           0        18.8       0.000
  JK-storage           STORAGE       0.00  1166.31     0  02:53           0        10.2      -9.395
  CC-storage           STORAGE       0.00  1676.23     0  02:41           0        6.28       1.048
  XR-storage           STORAGE    1024.87  1024.87     0  03:01        12.7        13.3      -0.000
  
  
  **********************
  Node Surcharge Summary
  **********************
  
  Surcharging occurs when water rises above the top of the highest conduit.
  ---------------------------------------------------------------------
                                               Max. Height   Min. Depth
                                   Hours       Above Crown    Below Rim
  Node                 Type      Surcharged         Meters       Meters
  ---------------------------------------------------------------------
  WS02004401           JUNCTION        0.41          0.239        1.421
  WS02004402           JUNCTION        0.46          0.224        1.516
  WS02004403           JUNCTION        0.47          0.199        1.831
  WS02004404           JUNCTION        0.77          0.246        2.534
  WS02004406           JUNCTION        0.61          0.165        2.285
  WS02004413           JUNCTION        0.17          0.023        2.177
  WS02004405           JUNCTION        0.66          0.218        2.582
  WS02006109           JUNCTION        3.17          0.837        0.983
  WS02006110           JUNCTION        1.28          0.547        1.303
  WS02006111           JUNCTION        0.12          0.075        1.795
  WS02006112           JUNCTION        1.84          0.560        1.120
  WS02006113           JUNCTION        0.14          0.124        1.806
  WS02006115           JUNCTION        0.28          0.208        2.042
  WS02006116           JUNCTION        0.30          0.203        2.087
  WS02006230           JUNCTION        0.93          0.798        0.772
  WS02006231           JUNCTION        1.42          0.810        0.720
  WS02006232           JUNCTION        2.98          0.927        0.553
  WS02006234           JUNCTION        2.16          0.806        0.434
  WS02006235           JUNCTION        2.56          0.829        0.461
  WS02006238           JUNCTION        2.64          0.839        0.591
  WS02006240           JUNCTION        1.78          0.691        0.699
  WS02006242           JUNCTION        1.85          0.697        0.123
  WS02006243           JUNCTION        1.23          0.702        0.068
  WS02006245           JUNCTION        0.99          0.590        0.260
  WS02006247           JUNCTION        0.99          0.528        0.232
  WS02006248           JUNCTION        0.82          0.380        0.000
  WS02006249           JUNCTION        0.87          0.390        0.000
  WS02006239           JUNCTION        2.03          0.748        0.542
  WS02006251           JUNCTION        0.42          0.204        0.976
  WS02006252           JUNCTION        1.01          0.393        0.707
  WS02006253           JUNCTION        0.45          0.240        2.240
  WS02006256           JUNCTION        6.81          2.050        0.000
  WS02006228           JUNCTION        3.11          0.999        1.201
  YS02001748           JUNCTION        5.22          1.190        0.000
  YS02001751           JUNCTION        5.38          1.168        0.032
  YS02001754           JUNCTION        5.58          1.110        0.040
  YS02001762           JUNCTION        5.75          1.067        0.083
  YS02001765           JUNCTION        5.72          0.998        0.102
  YS02001767           JUNCTION        5.69          0.950        0.080
  YS02001770           JUNCTION        5.68          0.903        0.017
  YS02001774           JUNCTION        5.74          0.994        0.056
  YS02001779           JUNCTION        5.56          0.680        0.000
  YS02001882           JUNCTION        1.06          0.633        0.197
  YS02001884           JUNCTION        1.09          0.674        0.196
  YS02001759           JUNCTION        5.78          1.103        0.107
  YS02001887           JUNCTION        1.17          0.762        0.188
  YS02001890           JUNCTION        1.20          0.760        0.000
  YS02001898           JUNCTION        1.02          0.532        0.208
  YS02001901           JUNCTION        1.13          0.677        0.193
  YS02001904           JUNCTION        1.11          0.637        0.213
  YS02001907           JUNCTION        1.90          0.950        0.000
  YS02001910           JUNCTION        1.24          0.785        0.315
  YS02001915           JUNCTION        1.05          0.600        0.400
  YS02001918           JUNCTION        0.85          0.280        0.530
  YS02001619           JUNCTION        5.37          0.610        0.000
  YS02001629           JUNCTION        5.38          0.470        0.000
  YS02001641           JUNCTION        5.73          0.940        0.160
  YS02001644           JUNCTION        5.73          0.920        0.000
  YS02001652           JUNCTION        5.61          1.071        0.059
  YS02001655           JUNCTION        5.39          1.141        0.059
  YS02001920           JUNCTION        0.88          0.363        0.777
  YS02001658           JUNCTION        5.25          1.161        0.139
  YS02001661           JUNCTION        0.10          1.182        0.208
  YS02001622           JUNCTION        5.40          0.614        0.006
  YS02001633           JUNCTION        5.71          0.946        0.114
  YS02001649           JUNCTION        5.76          1.050        0.000
  YS02001757           JUNCTION        5.86          1.210        0.000
  YS02001895           JUNCTION        1.03          0.566        0.184
  YS02001625           JUNCTION        5.64          0.780        0.000
  YS02163301           JUNCTION        5.68          0.910        0.120
  YS02163601           JUNCTION        5.75          1.013        0.067
  YS02164001           JUNCTION        5.72          0.941        0.159
  YS02001647           JUNCTION        5.62          0.805        0.095
  YS02006553           JUNCTION        1.97          1.017        0.173
  YS02006561           JUNCTION        0.86          0.415        0.735
  YS02006556           JUNCTION        1.47          1.013        0.337
  YS02006558           JUNCTION        1.43          1.017        0.383
  YS02001783           JUNCTION        1.30          0.839        0.761
  YS02001784           JUNCTION        1.28          0.803        0.687
  YS02001786           JUNCTION        1.08          0.641        0.789
  YS02001788           JUNCTION        0.88          0.533        0.947
  YS02001790           JUNCTION        1.90          0.619        0.538
  YS02001791           JUNCTION        2.01          0.478        1.442
  YS02001793           JUNCTION        2.33          0.803        1.797
  
  
  *********************
  Node Flooding Summary
  *********************
  
  Flooding refers to all water that overflows a node, whether it ponds or not.
  --------------------------------------------------------------------------
                                                             Total   Maximum
                                 Maximum   Time of Max       Flood    Ponded
                        Hours       Rate    Occurrence      Volume     Depth
  Node                 Flooded       LPS   days hr:min    10^6 ltr    Meters
  --------------------------------------------------------------------------
  WS02006248              0.08     15.46      0  03:03       0.002     0.000
  WS02006249              0.41    225.38      0  03:00       0.152     0.000
  WS02006256              3.96    789.10      0  06:51       6.084     0.000
  YS02001748              0.01    215.90      0  02:33       0.000     0.000
  YS02001779              3.16    700.35      0  03:17       2.717     0.000
  YS02001890              0.34    163.62      0  03:01       0.085     0.000
  YS02001907              0.72    727.79      0  03:01       0.954     0.000
  YS02001619              0.01     17.61      0  02:33       0.000     0.000
  YS02001629              0.01     24.19      0  02:32       0.000     0.000
  YS02001644              4.20   1525.25      0  03:01      10.231     0.000
  YS02001649              0.02     38.53      0  02:46       0.001     0.000
  YS02001757              0.01     18.57      0  02:33       0.000     0.000
  YS02001625              1.41    408.06      0  03:01       0.856     0.000
  JK-storage              1.12    966.97      0  03:10       1.460     0.000
  XR-storage              3.49    644.74      0  03:01       2.672     0.000
  
  
  **********************
  Storage Volume Summary
  **********************
  
  --------------------------------------------------------------------------------------------------
                         Average     Avg  Evap Exfil       Maximum     Max    Time of Max    Maximum
                          Volume    Pcnt  Pcnt  Pcnt        Volume    Pcnt     Occurrence    Outflow
  Storage Unit           1000 m3    Full  Loss  Loss       1000 m3    Full    days hr:min        LPS
  --------------------------------------------------------------------------------------------------
  JK-storage               0.144      49     0     0         0.291     100       0  02:15     983.00
  CC-storage               3.169      20     0     0         4.046      26       0  03:16     400.00
  XR-storage               0.791      85     0     0         0.926     100       0  02:57     380.00
  
  
  ***********************
  Outfall Loading Summary
  ***********************
  
  ---------------------------------------------------------------------------------------------------------------------------------
                         Flow       Avg       Max       Total         Total         Total         Total         Total         Total
                         Freq      Flow      Flow      Volume           COD            SS            TN            TP         NH4-N
  Outfall Node           Pcnt       LPS       LPS    10^6 ltr            kg            kg            kg            kg            kg
  ---------------------------------------------------------------------------------------------------------------------------------
  WSC                  100.00    753.29   1334.06      18.834      2297.146      3966.862       146.769        17.274        88.806
  ---------------------------------------------------------------------------------------------------------------------------------
  System               100.00    753.29   1334.06      18.834      2297.146      3966.862       146.769        17.274        88.806
  
  
  ********************
  Link Flow Summary
  ********************
  
  -----------------------------------------------------------------------------
                                 Maximum  Time of Max   Maximum    Max/    Max/
                                  |Flow|   Occurrence   |Veloc|    Full    Full
  Link                 Type          LPS  days hr:min     m/sec    Flow   Depth
  -----------------------------------------------------------------------------
  WS02003066WSF200     CONDUIT    938.80     0  03:04      3.00    0.16    0.32
  WS02006287WS02006284 CONDUIT    678.92     0  03:02      2.38    0.31    0.39
  WS02006284WS02006280 CONDUIT    680.15     0  03:02      2.62    0.28    0.37
  WS02006280WS02006229 CONDUIT    680.20     0  03:02      3.85    0.15    0.50
  WS02006229WS02006228 CONDUIT    913.92     0  03:02      1.82    3.03    1.00
  WS02006256WS02006235 CONDUIT    264.10     0  00:52      3.74    2.80    1.00
  WS02006253WS02006251 CONDUIT    148.77     0  03:08      0.54    0.45    1.00
  WS02006252WS02006251 CONDUIT    404.55     0  06:50      3.22    1.48    1.00
  WS02006251WS02006249 CONDUIT    427.91     0  06:50      1.11    1.23    1.00
  WS02006249WS02006248 CONDUIT    353.10     0  05:30      1.10    1.93    1.00
  WS02006248WS02006247 CONDUIT    335.82     0  05:30      1.02    0.73    1.00
  WS02006247WS02006245 CONDUIT    328.60     0  06:50      0.94    2.61    1.00
  WS02006245WS02006243 CONDUIT    328.24     0  06:50      1.04    0.97    1.00
  WS02006243WS02006242 CONDUIT    327.85     0  06:50      0.90    0.70    1.00
  WS02006242WS02006240 CONDUIT    328.34     0  06:50      0.85    1.30    1.00
  WS02006240WS02006239 CONDUIT    329.27     0  06:50      0.90    1.04    1.00
  WS02006239WS02006238 CONDUIT    329.25     0  06:50      0.86    1.05    1.00
  WS02006238WS02006235 CONDUIT    330.39     0  06:50      1.05    0.74    1.00
  WS02006235WS02006234 CONDUIT    524.70     0  06:50      1.36    5.54    1.00
  WS02006234WS02006232 CONDUIT    523.55     0  06:50      1.36    1.06    1.00
  WS02006232WS02006231 CONDUIT    522.91     0  06:50      1.36    1.10    1.00
  WS02006231WS02006230 CONDUIT    523.09     0  06:50      1.36    7.93    1.00
  WS02006230WS02006229 CONDUIT    534.79     0  06:50      1.39   11.90    1.00
  WS02006228WS02006109 CONDUIT    914.04     0  03:02      1.82    3.99    1.00
  WS02006116WS02004401 CONDUIT    939.64     0  03:02      1.20    1.30    1.00
  WS02006115WS02006116 CONDUIT    939.70     0  03:02      1.20    1.21    1.00
  WS02006113WS02006111 CONDUIT    915.68     0  03:03      2.61    1.10    1.00
  WS02006112WS02006115 CONDUIT    939.32     0  03:02      1.20    0.55    1.00
  WS02006111WS02006112 CONDUIT    916.03     0  03:03      1.82    0.44    1.00
  WS02006110WS02006113 CONDUIT    915.61     0  03:02      1.82    0.83    1.00
  WS02006109WS02006110 CONDUIT    915.63     0  03:02      1.82    1.76    1.00
  WS02004411WS02004412 CONDUIT    937.58     0  03:03      1.24    1.33    0.92
  WS02004401WS02004402 CONDUIT    940.01     0  03:02      1.20    1.13    1.00
  WS02004413WS02003067 CONDUIT    938.10     0  03:04      1.55    0.40    0.72
  WS02004412WS02004413 CONDUIT    938.03     0  03:04      1.22    0.63    0.95
  WS02004410WS02004411 CONDUIT    937.81     0  03:03      1.23    1.28    0.94
  WS02004409WS02004410 CONDUIT    938.47     0  03:03      1.22    1.21    0.95
  WS02004407WS02004409 CONDUIT    939.65     0  03:03      1.67    0.33    0.68
  WS02004406WS02004407 CONDUIT    940.11     0  03:02      1.60    0.42    0.70
  WS02004405WS02004406 CONDUIT    940.50     0  03:02      1.20    1.86    1.00
  WS02004404WS02004405 CONDUIT    940.95     0  03:02      1.20    9.22    1.00
  WS02004403WS02004404 CONDUIT    940.45     0  03:02      1.20    0.68    1.00
  WS02004402WS02004403 CONDUIT    939.84     0  03:02      1.20    1.35    1.00
  WS02004139WS02001211 CONDUIT    385.86     0  03:15      0.90    0.49    0.64
  WS02004138WS02004139 CONDUIT    394.13     0  00:00      3.62    0.08    0.47
  WS02003067WS02003066 CONDUIT    938.63     0  03:04      1.65    0.30    0.50
  WS02001213WS02003059 CONDUIT    410.86     0  03:14      0.89    0.68    0.87
  WS02001212WS02001213 CONDUIT    404.29     0  03:14      1.32    0.62    0.56
  WS02001211WS02001212 CONDUIT    399.14     0  03:15      0.78    0.31    0.71
  WS02003072WS02003073 CONDUIT   1332.02     0  03:06      1.96    2.88    0.58
  WS02003069WS02003072 CONDUIT   1331.87     0  03:05      1.82    0.64    0.62
  WS02003060WS02003069 CONDUIT   1331.85     0  03:05      2.03    0.52    0.56
  WS02003059WS02003060 CONDUIT    418.07     0  03:13      0.95    0.27    0.77
  HS02004901HS02004770 CONDUIT     37.23     0  03:01      0.10    0.14    0.53
  HS02004876HS02004881 CONDUIT    127.64     0  03:01      1.21    1.36    0.15
  HS02004870HS02004876 CONDUIT    103.10     0  03:01      0.82    0.07    0.18
  HS02004842HS02004848 CONDUIT     16.84     0  03:01      0.07    0.01    0.33
  HS02004837HS02004842 CONDUIT     17.91     0  03:03      0.42    0.01    0.35
  HS02004830HS02004837 CONDUIT     64.64     0  03:01      0.67    0.06    0.14
  HS02004824HS02004830 CONDUIT     64.12     0  03:02      0.62    0.08    0.16
  HS02004817HS02004824 CONDUIT    123.86     0  03:01      0.31    0.06    0.58
  HS02004770HS02004777 CONDUIT    184.98     0  03:01      0.49    0.34    0.54
  HS02004799HS02004480 CONDUIT    444.34     0  03:01      1.07    0.56    0.60
  HS02004792HS02004799 CONDUIT    408.44     0  03:01      1.20    0.25    0.49
  HS02004788HS02004792 CONDUIT    232.94     0  03:02      1.28    0.15    0.26
  HS02004785HS02004788 CONDUIT    181.77     0  03:02      0.91    1.37    0.29
  HS02004777HS02004785 CONDUIT    182.05     0  03:01      0.57    0.22    0.45
  HS02004480HS02004478 CONDUIT    517.33     0  03:01      1.55    2.18    0.48
  HS02004479HS02004480 CONDUIT     77.30     0  03:02      0.30    0.07    0.57
  HS02004862HS02004870 CONDUIT     79.03     0  03:01      0.80    0.09    0.14
  HS02004848HS02004852 CONDUIT     37.84     0  03:01      0.53    0.04    0.10
  HS02004856HS02004862 CONDUIT     54.77     0  03:01      0.59    0.05    0.13
  HS02004852HS02004856 CONDUIT     37.76     0  03:02      0.34    0.04    0.16
  HS02004802HS02004478 CONDUIT    170.16     0  03:04      0.54    0.15    0.48
  HS02004478WS02006287 CONDUIT    677.65     0  03:02      2.11    0.19    0.36
  HS02004817HS02004807 CONDUIT    128.12     0  03:04      0.25    0.08    0.75
  HS02004807HS02004802 CONDUIT    165.32     0  03:04      0.46    0.32    0.53
  YS02001759YS02001757 CONDUIT    620.84     0  02:42      0.79    0.44    1.00
  YS02001762YS02001759 CONDUIT    315.80     0  02:42      0.40    0.36    1.00
  YS02001765YS02001762 CONDUIT    315.77     0  02:42      0.40    0.30    1.00
  YS02001770YS02001767 CONDUIT    315.17     0  02:42      0.40    1.25    1.00
  YS02001774YS02001770 CONDUIT    700.52     0  03:17      0.89    0.45    1.00
  YS02001779YS02001774 CONDUIT    700.35     0  03:17      0.89    0.35    1.00
  YS02001649YS02001757 CONDUIT    879.46     0  02:39      1.12    0.53    1.00
  YS02001767YS02001765 CONDUIT    315.45     0  02:42      0.40    0.40    1.00
  YS02006561YS02001783 CONDUIT   1146.91     0  02:56      2.28    0.59    1.00
  YS02001783YS02001784 CONDUIT   1147.21     0  02:56      2.28    1.58    1.00
  YS02001784YS02001785 CONDUIT   1147.95     0  02:56      2.28    2.67    1.00
  YS02001788YS02001790 CONDUIT   1159.34     0  02:55      2.74    0.85    1.00
  YS02001790YS02001791 CONDUIT   1271.59     0  02:52      3.42    1.38    1.00
  YS02001791YS02001793 CONDUIT   1219.03     0  02:54      6.53    0.52    1.00
  YS02001910YS02001907 CONDUIT    595.57     0  03:01      0.76    0.34    1.00
  YS02001786YS02001788 CONDUIT   1148.35     0  02:56      2.47    2.21    1.00
  YS02001915YS02001910 CONDUIT    595.51     0  03:01      0.76    0.30    1.00
  YS02001918YS02001915 CONDUIT    260.63     0  02:52      0.44    0.14    1.00
  YS02001923YS02001920 CONDUIT    256.95     0  02:52      0.75    0.12    1.00
  YS02001926YS02001923 CONDUIT    238.73     0  02:52      0.86    0.34    0.93
  YS02001929YS02001926 CONDUIT    203.36     0  03:02      0.92    0.10    0.82
  YS02001920YS02001918 CONDUIT    260.08     0  02:52      0.72    0.25    1.00
  YS02001629YS02163301 CONDUIT    203.00     0  02:32      0.26    0.25    1.00
  YS02001619YS02001622 CONDUIT    380.92     0  03:01      0.59    0.56    1.00
  YS02001622YS02001625 CONDUIT    381.63     0  03:01      0.49    0.20    1.00
  YS02001625YS02001629 CONDUIT    197.33     0  02:39      0.25    0.09    1.00
  YS02163301YS02001633 CONDUIT    203.71     0  02:32      0.26    0.19    1.00
  YS02163601YS02164001 CONDUIT    413.09     0  02:39      0.53    0.37    1.00
  YS02164001YS02001641 CONDUIT    412.47     0  02:40      0.53    0.56    1.00
  YS02001641YS02001644 CONDUIT    412.63     0  02:40      0.53    1.33    1.00
  YS02001647YS02001649 CONDUIT    807.74     0  03:18      1.03    0.43    1.00
  YS02006553YS02006556 CONDUIT    719.11     0  02:51      0.92    0.62    1.00
  YS02006556YS02006558 CONDUIT    718.33     0  02:51      0.91    0.57    1.00
  YSB6556YSB1171       CONDUIT     42.82     0  03:02      0.13    0.04    0.82
  YS02001907YS02006553 CONDUIT    718.74     0  02:51      0.80    0.85    1.00
  YS02006558YS02006561 CONDUIT   1147.29     0  02:56      4.06    2.54    1.00
  YS02001633YS02163601 CONDUIT    412.49     0  02:39      0.53    0.43    1.00
  YS02001644YS02001647 CONDUIT    807.35     0  03:18      1.03    0.47    1.00
  YS02001745YS02001748 CONDUIT    582.71     0  02:32      1.46    0.22    0.98
  YS02001748YS02001751 CONDUIT    442.72     0  03:01      1.03    0.22    1.00
  YS02001751YS02001754 CONDUIT    443.44     0  03:01      0.88    0.21    1.00
  YS02001754YS02001757 CONDUIT    443.68     0  03:01      0.56    0.18    1.00
  YS02001882YS02001884 CONDUIT     13.82     0  04:10      0.12    0.02    1.00
  YS02001884YS02001887 CONDUIT     19.72     0  04:13      0.08    0.03    1.00
  YS02001890YS02001895 CONDUIT    517.51     0  03:03      0.66    0.24    1.00
  YS02001895YS02001898 CONDUIT    517.77     0  03:03      0.66    0.90    1.00
  YS02001898YS02001901 CONDUIT    517.87     0  03:03      0.66    0.33    1.00
  YS02001901YS02001904 CONDUIT    517.63     0  03:01      0.66    0.80    1.00
  YS02001904YS02001907 CONDUIT    517.72     0  03:02      0.66    0.18    1.00
  YS02001887YS02001890 CONDUIT    680.09     0  03:01      0.87    1.16    1.00
  YS02001652YS02001649 CONDUIT    498.18     0  03:01      0.63    0.25    1.00
  YS02001655YS02001652 CONDUIT    498.07     0  03:01      0.94    0.24    1.00
  YS02001658YS02001655 CONDUIT    497.19     0  03:01      1.18    0.21    1.00
  YS02001661YS02001658 CONDUIT    636.60     0  02:29      1.52    0.25    1.00
  YS02001664YS02001661 CONDUIT    665.92     0  02:41      1.43    0.21    0.77
  YSB1154YSB6556       CONDUIT     43.28     0  03:01      0.18    0.08    0.73
  YSB1174YSB1171       CONDUIT     36.65     0  03:01      0.11    0.06    0.85
  YSB1171HS02004479    CONDUIT     75.43     0  03:02      0.54    0.05    0.68
  HS02004881HS02006253 CONDUIT    140.48     0  03:01      2.14    0.03    0.54
  YS02001793JiankangQianchi CONDUIT   1166.31     0  02:53     16.55    0.09    1.00
  YS02001757CaochengTiaoxuchi CONDUIT   1676.23     0  02:41      2.17    0.74    1.00
  WSF200WS02003060     CONDUIT    939.10     0  03:04      1.93    0.21    0.45
  1                    CONDUIT   1334.06     0  03:07      3.59    0.46    0.48
  CC-Pump-1            PUMP       200.00     0  03:30              1.00
  CC-Pump-2            PUMP       200.00     0  06:50              1.00
  JK-Pump-1            PUMP       300.00     0  02:20              1.00
  JK-Pump-2            PUMP       683.00     0  02:30              1.00
  XR-Pump-1            PUMP        95.00     0  00:00              1.00
  XR-Pump-2            PUMP        95.00     0  00:00              1.00
  XR-Pump-3            PUMP        95.00     0  00:00              1.00
  XR-Pump-4            PUMP        95.00     0  00:00              1.00
  
  
  ***************************
  Flow Classification Summary
  ***************************
  
  -------------------------------------------------------------------------------------
                      Adjusted    ---------- Fraction of Time in Flow Class ---------- 
                       /Actual         Up    Down  Sub   Sup   Up    Down  Norm  Inlet 
  Conduit               Length    Dry  Dry   Dry   Crit  Crit  Crit  Crit  Ltd   Ctrl  
  -------------------------------------------------------------------------------------
  WS02003066WSF200        1.00   0.01  0.06  0.00  0.00  0.93  0.00  0.00  0.51  0.00
  WS02006287WS02006284    1.00   0.03  0.02  0.00  0.57  0.39  0.00  0.00  0.65  0.00
  WS02006284WS02006280    1.00   0.04  0.00  0.00  0.00  0.00  0.00  0.96  0.00  0.00
  WS02006280WS02006229    1.00   0.04  0.00  0.00  0.01  0.02  0.00  0.93  0.00  0.00
  WS02006229WS02006228    1.00   0.00  0.00  0.00  1.00  0.00  0.00  0.00  0.00  0.00
  WS02006256WS02006235    1.00   0.03  0.00  0.00  0.97  0.00  0.00  0.00  0.00  0.00
  WS02006253WS02006251    1.00   0.01  0.02  0.00  0.96  0.00  0.01  0.00  0.00  0.00
  WS02006252WS02006251    1.00   0.20  0.00  0.00  0.05  0.00  0.75  0.00  0.00  0.00
  WS02006251WS02006249    1.00   0.00  0.00  0.00  1.00  0.00  0.00  0.00  0.32  0.00
  WS02006249WS02006248    1.00   0.00  0.00  0.00  0.84  0.00  0.15  0.00  0.00  0.00
  WS02006248WS02006247    1.00   0.01  0.00  0.00  0.98  0.00  0.00  0.02  0.22  0.00
  WS02006247WS02006245    1.00   0.01  0.00  0.00  0.95  0.00  0.00  0.04  0.00  0.00
  WS02006245WS02006243    1.00   0.01  0.00  0.00  0.92  0.00  0.00  0.08  0.01  0.00
  WS02006243WS02006242    1.00   0.01  0.00  0.00  0.97  0.00  0.00  0.02  0.22  0.00
  WS02006242WS02006240    1.00   0.01  0.02  0.00  0.97  0.00  0.00  0.00  0.00  0.00
  WS02006240WS02006239    1.00   0.03  0.00  0.00  0.94  0.00  0.00  0.03  0.01  0.00
  WS02006239WS02006238    1.00   0.03  0.00  0.00  0.97  0.00  0.00  0.00  0.03  0.00
  WS02006238WS02006235    1.00   0.03  0.00  0.00  0.97  0.00  0.00  0.00  0.00  0.00
  WS02006235WS02006234    1.00   0.03  0.00  0.00  0.95  0.00  0.02  0.00  0.00  0.00
  WS02006234WS02006232    1.00   0.03  0.00  0.00  0.97  0.00  0.00  0.00  0.01  0.00
  WS02006232WS02006231    1.00   0.03  0.00  0.00  0.97  0.00  0.00  0.00  0.00  0.00
  WS02006231WS02006230    1.00   0.03  0.00  0.00  0.71  0.00  0.26  0.00  0.00  0.00
  WS02006230WS02006229    1.00   0.00  0.00  0.00  0.99  0.00  0.00  0.01  0.00  0.00
  WS02006228WS02006109    1.00   0.00  0.00  0.00  1.00  0.00  0.00  0.00  0.00  0.00
  WS02006116WS02004401    1.00   0.03  0.00  0.00  0.97  0.00  0.00  0.00  0.00  0.00
  WS02006115WS02006116    1.00   0.03  0.00  0.00  0.96  0.00  0.00  0.01  0.00  0.00
  WS02006113WS02006111    1.00   0.02  0.00  0.00  0.05  0.94  0.00  0.00  0.18  0.00
  WS02006112WS02006115    1.00   0.02  0.01  0.00  0.97  0.00  0.00  0.00  0.00  0.00
  WS02006111WS02006112    1.00   0.02  0.00  0.00  0.98  0.00  0.00  0.00  0.84  0.00
  WS02006110WS02006113    1.00   0.00  0.01  0.00  0.98  0.00  0.00  0.00  0.00  0.00
  WS02006109WS02006110    1.00   0.00  0.00  0.00  0.99  0.00  0.00  0.00  0.00  0.00
  WS02004411WS02004412    1.00   0.05  0.00  0.00  0.95  0.00  0.00  0.00  0.00  0.00
  WS02004401WS02004402    1.00   0.03  0.00  0.00  0.97  0.00  0.00  0.00  0.00  0.00
  WS02004413WS02003067    1.00   0.05  0.01  0.00  0.00  0.00  0.94  0.00  0.00  0.00
  WS02004412WS02004413    1.00   0.05  0.00  0.00  0.95  0.00  0.00  0.00  0.01  0.00
  WS02004410WS02004411    1.00   0.04  0.00  0.00  0.96  0.00  0.00  0.00  0.00  0.00
  WS02004409WS02004410    1.00   0.04  0.00  0.00  0.96  0.00  0.00  0.00  0.01  0.00
  WS02004407WS02004409    1.00   0.04  0.00  0.00  0.95  0.00  0.00  0.00  0.84  0.00
  WS02004406WS02004407    1.00   0.00  0.04  0.00  0.96  0.00  0.00  0.00  0.00  0.00
  WS02004405WS02004406    1.00   0.00  0.00  0.00  1.00  0.00  0.00  0.00  0.04  0.00
  WS02004404WS02004405    1.00   0.00  0.00  0.00  1.00  0.00  0.00  0.00  0.00  0.00
  WS02004403WS02004404    1.00   0.00  0.03  0.00  0.97  0.00  0.00  0.00  0.01  0.00
  WS02004402WS02004403    1.00   0.03  0.00  0.00  0.97  0.00  0.00  0.00  0.00  0.00
  WS02004139WS02001211    1.00   0.00  0.00  0.00  1.00  0.00  0.00  0.00  0.00  0.00
  WS02004138WS02004139    1.00   0.00  0.00  0.00  1.00  0.00  0.00  0.00  1.00  0.00
  WS02003067WS02003066    1.00   0.06  0.01  0.00  0.93  0.00  0.00  0.00  0.00  0.00
  WS02001213WS02003059    1.00   0.00  0.00  0.00  1.00  0.00  0.00  0.00  0.00  0.00
  WS02001212WS02001213    1.00   0.00  0.00  0.00  0.90  0.00  0.10  0.00  0.00  0.00
  WS02001211WS02001212    1.00   0.00  0.00  0.00  1.00  0.00  0.00  0.00  0.00  0.00
  WS02003072WS02003073    1.00   0.00  0.00  0.00  0.00  0.00  0.00  1.00  0.00  0.00
  WS02003069WS02003072    1.00   0.00  0.00  0.00  1.00  0.00  0.00  0.00  0.14  0.00
  WS02003060WS02003069    1.00   0.00  0.00  0.00  0.99  0.01  0.00  0.00  0.09  0.00
  WS02003059WS02003060    1.00   0.00  0.00  0.00  1.00  0.00  0.00  0.00  0.00  0.00
  HS02004901HS02004770    1.00   0.04  0.00  0.00  0.96  0.00  0.00  0.00  0.00  0.00
  HS02004876HS02004881    1.00   0.01  0.00  0.00  0.90  0.10  0.00  0.00  0.00  0.00
  HS02004870HS02004876    1.00   0.00  0.00  0.00  1.00  0.00  0.00  0.00  0.95  0.00
  HS02004842HS02004848    1.00   0.00  0.04  0.00  0.96  0.00  0.00  0.00  0.54  0.00
  HS02004837HS02004842    1.00   0.00  0.00  0.00  1.00  0.00  0.00  0.00  0.11  0.00
  HS02004830HS02004837    1.00   0.00  0.00  0.00  1.00  0.00  0.00  0.00  0.99  0.00
  HS02004824HS02004830    1.00   0.00  0.00  0.00  1.00  0.00  0.00  0.00  0.01  0.00
  HS02004817HS02004824    1.00   0.00  0.00  0.00  1.00  0.00  0.00  0.00  0.97  0.00
  HS02004770HS02004777    1.00   0.00  0.04  0.00  0.96  0.00  0.00  0.00  0.03  0.00
  HS02004799HS02004480    1.00   0.00  0.01  0.00  0.95  0.00  0.04  0.00  0.00  0.00
  HS02004792HS02004799    1.00   0.00  0.00  0.00  1.00  0.00  0.00  0.00  0.98  0.00
  HS02004788HS02004792    1.00   0.00  0.00  0.00  1.00  0.00  0.00  0.00  0.98  0.00
  HS02004785HS02004788    1.00   0.00  0.00  0.00  1.00  0.00  0.00  0.00  0.00  0.00
  HS02004777HS02004785    1.00   0.00  0.00  0.00  1.00  0.00  0.00  0.00  0.12  0.00
  HS02004480HS02004478    1.00   0.04  0.00  0.00  0.65  0.00  0.00  0.31  0.00  0.00
  HS02004479HS02004480    1.00   0.01  0.00  0.00  0.99  0.00  0.00  0.00  0.12  0.00
  HS02004862HS02004870    1.00   0.00  0.00  0.00  1.00  0.00  0.00  0.00  0.04  0.00
  HS02004848HS02004852    1.00   0.04  0.00  0.00  0.96  0.00  0.00  0.00  0.64  0.00
  HS02004856HS02004862    1.00   0.00  0.05  0.00  0.95  0.00  0.00  0.00  0.83  0.00
  HS02004852HS02004856    1.00   0.04  0.00  0.00  0.96  0.00  0.00  0.00  0.81  0.00
  HS02004802HS02004478    1.00   0.04  0.00  0.00  0.96  0.00  0.00  0.00  0.02  0.00
  HS02004478WS02006287    1.00   0.05  0.00  0.00  0.74  0.21  0.00  0.00  0.65  0.00
  HS02004817HS02004807    1.00   0.00  0.04  0.00  0.96  0.00  0.00  0.00  0.01  0.00
  HS02004807HS02004802    1.00   0.04  0.00  0.00  0.96  0.00  0.00  0.01  0.00  0.00
  YS02001759YS02001757    1.00   0.00  0.00  0.00  1.00  0.00  0.00  0.00  0.16  0.00
  YS02001762YS02001759    1.00   0.00  0.00  0.00  1.00  0.00  0.00  0.00  0.03  0.00
  YS02001765YS02001762    1.00   0.00  0.00  0.00  1.00  0.00  0.00  0.00  0.14  0.00
  YS02001770YS02001767    1.00   0.00  0.00  0.00  1.00  0.00  0.00  0.00  0.00  0.00
  YS02001774YS02001770    1.00   0.00  0.04  0.00  0.96  0.00  0.00  0.00  0.03  0.00
  YS02001779YS02001774    1.00   0.00  0.00  0.00  1.00  0.00  0.00  0.00  0.19  0.00
  YS02001649YS02001757    1.00   0.00  0.00  0.00  1.00  0.00  0.00  0.00  0.16  0.00
  YS02001767YS02001765    1.00   0.00  0.00  0.00  1.00  0.00  0.00  0.00  0.00  0.00
  YS02006561YS02001783    1.00   0.06  0.00  0.00  0.39  0.55  0.00  0.00  0.49  0.00
  YS02001783YS02001784    1.00   0.00  0.06  0.00  0.94  0.00  0.00  0.00  0.00  0.00
  YS02001784YS02001785    1.00   0.00  0.00  0.00  1.00  0.00  0.00  0.00  0.18  0.00
  YS02001788YS02001790    1.00   0.00  0.00  0.00  0.39  0.61  0.00  0.00  0.36  0.00
  YS02001790YS02001791    1.00   0.00  0.00  0.00  0.33  0.67  0.00  0.00  0.43  0.00
  YS02001791YS02001793    1.00   0.00  0.00  0.00  0.37  0.63  0.00  0.00  0.03  0.00
  YS02001910YS02001907    1.00   0.00  0.00  0.00  0.99  0.00  0.00  0.01  0.12  0.00
  YS02001786YS02001788    1.00   0.00  0.00  0.00  0.39  0.61  0.00  0.00  0.00  0.00
  YS02001915YS02001910    1.00   0.00  0.00  0.00  0.99  0.01  0.00  0.00  0.16  0.00
  YS02001918YS02001915    1.00   0.00  0.00  0.00  0.99  0.00  0.00  0.00  0.53  0.00
  YS02001923YS02001920    1.00   0.00  0.00  0.00  1.00  0.00  0.00  0.00  0.82  0.00
  YS02001926YS02001923    1.00   0.00  0.02  0.00  0.18  0.00  0.80  0.00  0.00  0.00
  YS02001929YS02001926    1.00   0.00  0.04  0.00  0.96  0.00  0.00  0.00  0.75  0.00
  YS02001920YS02001918    1.00   0.00  0.00  0.00  1.00  0.00  0.00  0.00  0.00  0.00
  YS02001629YS02163301    1.00   0.05  0.00  0.00  0.95  0.00  0.00  0.00  0.00  0.00
  YS02001619YS02001622    1.00   0.04  0.00  0.00  0.96  0.00  0.00  0.00  0.00  0.00
  YS02001622YS02001625    1.00   0.04  0.00  0.00  0.96  0.00  0.00  0.00  0.05  0.00
  YS02001625YS02001629    1.00   0.04  0.02  0.00  0.92  0.00  0.02  0.00  0.00  0.00
  YS02163301YS02001633    1.00   0.00  0.05  0.00  0.95  0.00  0.00  0.00  0.00  0.00
  YS02163601YS02164001    1.00   0.00  0.02  0.00  0.98  0.00  0.00  0.00  0.00  0.00
  YS02164001YS02001641    1.00   0.00  0.02  0.00  0.98  0.00  0.00  0.00  0.06  0.00
  YS02001641YS02001644    1.00   0.00  0.00  0.00  1.00  0.00  0.00  0.00  0.00  0.00
  YS02001647YS02001649    1.00   0.00  0.05  0.00  0.95  0.00  0.00  0.00  0.01  0.00
  YS02006553YS02006556    1.00   0.00  0.00  0.00  1.00  0.00  0.00  0.00  0.03  0.00
  YS02006556YS02006558    1.00   0.00  0.00  0.00  1.00  0.00  0.00  0.00  0.00  0.00
  YSB6556YSB1171          1.00   0.01  0.03  0.00  0.96  0.00  0.00  0.00  0.00  0.00
  YS02001907YS02006553    1.00   0.00  0.01  0.00  0.99  0.00  0.00  0.00  0.00  0.00
  YS02006558YS02006561    1.00   0.06  0.00  0.00  0.17  0.78  0.00  0.00  0.47  0.00
  YS02001633YS02163601    1.00   0.00  0.00  0.00  1.00  0.00  0.00  0.00  0.15  0.00
  YS02001644YS02001647    1.00   0.00  0.05  0.00  0.95  0.00  0.00  0.00  0.00  0.00
  YS02001745YS02001748    1.00   0.00  0.00  0.00  0.90  0.01  0.00  0.10  0.04  0.00
  YS02001748YS02001751    1.00   0.00  0.00  0.00  0.96  0.04  0.00  0.00  0.15  0.00
  YS02001751YS02001754    1.00   0.00  0.00  0.00  0.94  0.00  0.00  0.06  0.02  0.00
  YS02001754YS02001757    1.00   0.00  0.00  0.00  1.00  0.00  0.00  0.00  0.18  0.00
  YS02001882YS02001884    1.00   0.05  0.00  0.00  0.95  0.00  0.00  0.00  0.00  0.00
  YS02001884YS02001887    1.00   0.02  0.02  0.00  0.97  0.00  0.00  0.00  0.00  0.00
  YS02001890YS02001895    1.00   0.00  0.05  0.00  0.95  0.00  0.00  0.00  0.00  0.00
  YS02001895YS02001898    1.00   0.05  0.00  0.00  0.94  0.00  0.01  0.00  0.00  0.00
  YS02001898YS02001901    1.00   0.05  0.00  0.00  0.95  0.00  0.00  0.00  0.01  0.00
  YS02001901YS02001904    1.00   0.05  0.00  0.00  0.95  0.00  0.00  0.00  0.00  0.00
  YS02001904YS02001907    1.00   0.00  0.05  0.00  0.95  0.00  0.00  0.00  0.00  0.00
  YS02001887YS02001890    1.00   0.00  0.00  0.00  0.99  0.00  0.01  0.00  0.00  0.00
  YS02001652YS02001649    1.00   0.00  0.00  0.00  1.00  0.00  0.00  0.00  0.17  0.00
  YS02001655YS02001652    1.00   0.00  0.00  0.00  0.94  0.00  0.00  0.06  0.02  0.00
  YS02001658YS02001655    1.00   0.00  0.04  0.00  0.92  0.03  0.00  0.00  0.10  0.00
  YS02001661YS02001658    1.00   0.04  0.00  0.00  0.89  0.06  0.00  0.00  0.11  0.00
  YS02001664YS02001661    1.00   0.04  0.00  0.00  0.91  0.05  0.00  0.00  0.20  0.00
  YSB1154YSB6556          1.00   0.04  0.00  0.00  0.96  0.00  0.00  0.00  0.02  0.00
  YSB1174YSB1171          1.00   0.01  0.01  0.00  0.97  0.00  0.00  0.00  0.00  0.00
  YSB1171HS02004479       1.00   0.01  0.00  0.00  0.99  0.00  0.00  0.00  0.10  0.00
  HS02004881HS02006253    1.00   0.02  0.00  0.00  0.49  0.06  0.00  0.44  0.36  0.00
  YS02001793JiankangQianchi    1.00   0.00  0.00  0.00  0.65  0.35  0.00  0.00  0.40  0.00
  YS02001757CaochengTiaoxuchi    1.00   0.00  0.08  0.00  0.92  0.00  0.00  0.00  0.00  0.00
  WSF200WS02003060        1.00   0.00  0.01  0.00  0.99  0.00  0.00  0.00  0.46  0.00
  1                       1.00   0.00  0.00  0.00  0.00  1.00  0.00  0.00  0.50  0.00
  
  
  *************************
  Conduit Surcharge Summary
  *************************
  
  ----------------------------------------------------------------------------
                                                           Hours        Hours 
                         --------- Hours Full --------   Above Full   Capacity
  Conduit                Both Ends  Upstream  Dnstream   Normal Flow   Limited
  ----------------------------------------------------------------------------
  WS02006229WS02006228        3.11      3.23      3.11      4.26         3.11
  WS02006256WS02006235        5.29      5.29      6.81      4.57         0.01
  WS02006253WS02006251        0.79      0.79      0.82      0.01         0.04
  WS02006252WS02006251        0.61      0.61      1.01      0.70         0.01
  WS02006251WS02006249        0.81      0.81      0.87      0.27         0.22
  WS02006249WS02006248        0.82      0.82      0.87      1.46         0.01
  WS02006248WS02006247        0.87      0.87      0.99      0.01         0.01
  WS02006247WS02006245        0.99      1.01      0.99      2.33         0.85
  WS02006245WS02006243        1.02      1.02      1.23      0.01         0.02
  WS02006243WS02006242        1.29      1.29      1.85      0.01         0.01
  WS02006242WS02006240        1.77      1.77      2.02      0.59         0.01
  WS02006240WS02006239        1.83      1.83      2.03      0.25         0.26
  WS02006239WS02006238        2.33      2.33      2.64      0.26         0.28
  WS02006238WS02006235        2.63      2.63      2.78      0.01         0.02
  WS02006235WS02006234        2.16      2.16      2.56      5.19         0.01
  WS02006234WS02006232        2.37      2.37      2.98      0.33         0.36
  WS02006232WS02006231        1.42      1.42      2.98      0.50         0.01
  WS02006231WS02006230        0.93      0.93      1.56      5.45         0.01
[...]
  YS02001770YS02001767        5.69      5.69      5.69      0.48         0.59
  YS02001774YS02001770        5.68      5.68      5.74      0.01         0.01
  YS02001779YS02001774        5.56      5.56      5.74      0.01         0.01
  YS02001649YS02001757        5.76      5.76      5.86      0.01         0.01
  YS02001767YS02001765        5.69      5.69      5.72      0.01         0.01
  YS02006561YS02001783        0.86      0.86      1.30      0.01         0.01
  YS02001783YS02001784        1.26      1.30      1.28      1.56         1.15
  YS02001784YS02001785        1.08      1.28      1.08      2.48         1.08
  YS02001788YS02001790        0.88      0.88      1.90      0.01         0.01
  YS02001790YS02001791        1.90      1.90      2.01      1.12         0.89
  YS02001791YS02001793        2.01      2.01      2.45      0.01         0.01
  YS02001910YS02001907        1.24      1.24      1.90      0.01         0.01
  YS02001786YS02001788        0.88      1.08      0.88      2.12         0.88
  YS02001915YS02001910        1.05      1.05      1.24      0.01         0.01
  YS02001918YS02001915        0.85      0.85      1.05      0.01         0.01
  YS02001923YS02001920        0.71      0.71      0.88      0.01         0.01
  YS02001920YS02001918        0.85      0.85      0.88      0.01         0.01
  YS02001629YS02163301        5.67      5.67      5.68      0.01         0.01
  YS02001619YS02001622        5.37      5.37      5.40      0.01         0.01
  YS02001622YS02001625        5.40      5.40      5.64      0.01         0.01
  YS02001625YS02001629        5.38      5.38      5.64      0.01         0.01
  YS02163301YS02001633        5.68      5.68      5.72      0.01         0.01
  YS02163601YS02164001        5.72      5.72      5.75      0.01         0.01
  YS02164001YS02001641        5.72      5.72      5.73      0.01         0.03
  YS02001641YS02001644        5.73      5.73      5.73      1.72         1.95
  YS02001647YS02001649        5.62      5.62      5.76      0.01         0.01
  YS02006553YS02006556        1.47      1.47      1.97      0.01         0.01
  YS02006556YS02006558        1.68      1.68      2.06      0.01         0.01
  YSB6556YSB1171              0.01      0.01      0.07      0.01         0.01
  YS02001907YS02006553        2.55      2.55      2.77      0.01         0.01
  YS02006558YS02006561        0.97      1.43      0.97      2.36         0.97
  YS02001633YS02163601        5.71      5.71      5.75      0.01         0.01
  YS02001644YS02001647        5.62      5.62      5.73      0.01         0.01
  YS02001745YS02001748        0.01      0.01      5.22      0.01         0.01
  YS02001748YS02001751        5.27      5.27      5.38      0.01         0.01
  YS02001751YS02001754        5.38      5.38      5.58      0.01         0.01
  YS02001754YS02001757        5.61      5.61      5.86      0.01         0.01
  YS02001882YS02001884        1.06      1.06      1.09      0.01         0.01
  YS02001884YS02001887        1.14      1.14      1.17      0.01         0.01
  YS02001890YS02001895        1.03      1.03      1.26      0.01         0.01
  YS02001895YS02001898        1.02      1.02      1.03      0.01         0.01
  YS02001898YS02001901        1.04      1.04      1.13      0.01         0.01
  YS02001901YS02001904        1.11      1.11      1.13      0.01         0.01
  YS02001904YS02001907        1.11      1.11      2.00      0.01         0.01
  YS02001887YS02001890        1.20      1.20      1.23      0.16         0.01
  YS02001652YS02001649        5.63      5.63      5.76      0.01         0.01
  YS02001655YS02001652        5.39      5.39      5.61      0.01         0.01
  YS02001658YS02001655        5.25      5.25      5.39      0.01         0.01
  YS02001661YS02001658        0.09      0.09      5.25      0.01         0.01
  YS02001664YS02001661        0.01      0.01      1.29      0.01         0.01
  HS02004881HS02006253        0.01      0.01      0.45      0.01         0.01
  YS02001793JiankangQianchi        2.33      2.33      5.07      0.01         0.01
  YS02001757CaochengTiaoxuchi        5.11      5.11      5.86      0.01         0.01
  
  
  ***************
  Pumping Summary
  ***************
  
  ---------------------------------------------------------------------------------------------------------
                                                  Min       Avg       Max     Total     Power    % Time Off
                        Percent   Number of      Flow      Flow      Flow    Volume     Usage    Pump Curve
  Pump                 Utilized   Start-Ups       LPS       LPS       LPS  10^6 ltr     Kw-hr    Low   High
  ---------------------------------------------------------------------------------------------------------
  CC-Pump-1               46.81           6      0.00    125.13    200.00     1.560      1.28    0.0    0.0
  CC-Pump-2               19.14           4      0.00    103.11    200.00     0.600      0.69    0.0    0.0
  JK-Pump-1               65.96           4      0.00    228.36    300.00     3.943     55.02    0.0    0.0
  JK-Pump-2               53.20           5      0.00    404.81    683.00     5.803     81.88    0.0   96.9
  XR-Pump-1              100.00           1      0.00     94.43     95.00     2.622     25.84    0.0    0.0
  XR-Pump-2               97.87           2      0.00     92.46     95.00     2.451     22.26    0.0    0.0
  XR-Pump-3               95.74           2      0.00     92.54     95.00     2.394     20.95    0.0    0.0
  XR-Pump-4               95.74           2      0.00     92.54     95.00     2.394     20.95    0.0    0.0
  
  
  ***************************
  Link Pollutant Load Summary
  ***************************
  
  ------------------------------------------------------------------------------------------
                                 COD            SS            TN            TP         NH4-N
  Link                            kg            kg            kg            kg            kg
  ------------------------------------------------------------------------------------------
  WS02003066WSF200           781.245      1461.260        20.871         1.852        11.046
  WS02006287WS02006284       319.463       608.072        10.315         1.015         5.679
  WS02006284WS02006280       319.936       608.842        10.360         1.021         5.707
  WS02006280WS02006229       319.890       608.744        10.358         1.020         5.706
  WS02006229WS02006228       779.699      1458.769        20.383         1.783        10.727
  WS02006256WS02006235       237.452       436.426         5.315         0.417         2.697
  WS02006253WS02006251        64.019       125.391         1.445         0.111         0.722
  WS02006252WS02006251       188.183       344.100         3.930         0.286         1.935
  WS02006251WS02006249       243.067       452.975         5.179         0.382         2.560
  WS02006249WS02006248       226.724       421.372         4.845         0.358         2.398
  WS02006248WS02006247       226.861       421.612         4.850         0.358         2.400
  WS02006247WS02006245       226.832       421.545         4.854         0.359         2.403
  WS02006245WS02006243       226.359       420.740         4.841         0.358         2.396
  WS02006243WS02006242       226.791       421.535         4.856         0.359         2.404
  WS02006242WS02006240       226.806       421.542         4.840         0.357         2.394
  WS02006240WS02006239       228.334       424.143         4.881         0.360         2.415
  WS02006239WS02006238       231.089       428.702         4.968         0.368         2.463
  WS02006238WS02006235       233.092       432.007         5.032         0.374         2.498
  WS02006235WS02006234       462.488       854.678        10.111         0.771         5.069
  WS02006234WS02006232       462.090       853.914        10.105         0.770         5.066
  WS02006232WS02006231       461.525       852.901        10.090         0.769         5.058
  WS02006231WS02006230       461.251       852.444        10.084         0.769         5.055
  WS02006230WS02006229       460.612       851.354        10.062         0.766         5.043
  WS02006228WS02006109       778.597      1456.766        20.345         1.779        10.706
  WS02006116WS02004401       792.137      1480.996        21.134         1.874        11.181
  WS02006115WS02006116       793.186      1482.891        21.158         1.875        11.193
  WS02006113WS02006111       784.141      1465.040        21.038         1.868        11.146
  WS02006112WS02006115       794.265      1484.755        21.203         1.880        11.219
  WS02006111WS02006112       783.870      1464.623        21.031         1.867        11.142
  WS02006110WS02006113       784.762      1466.176        21.065         1.871        11.161
  WS02006109WS02006110       786.041      1468.416        21.133         1.879        11.201
  WS02004411WS02004412       784.477      1466.922        20.994         1.865        11.116
  WS02004401WS02004402       791.070      1479.118        21.097         1.870        11.160
  WS02004413WS02003067       781.825      1462.379        20.883         1.853        11.052
  WS02004412WS02004413       783.434      1465.088        20.960         1.862        11.097
  WS02004410WS02004411       785.371      1468.540        21.019         1.867        11.129
  WS02004409WS02004410       786.302      1470.190        21.049         1.870        11.145
  WS02004407WS02004409       787.038      1471.553        21.063         1.871        11.153
  WS02004406WS02004407       787.290      1472.104        21.059         1.870        11.149
  WS02004405WS02004406       789.100      1475.252        21.151         1.880        11.203
  WS02004404WS02004405       789.795      1476.639        21.131         1.877        11.188
  WS02004403WS02004404       789.170      1475.730        21.039         1.865        11.129
  WS02004402WS02004403       790.070      1477.310        21.071         1.868        11.146
  WS02004139WS02001211      1376.249      2285.271       111.690        13.633        68.845
  WS02004138WS02004139      1382.555      2295.804       112.177        13.692        69.144
  WS02003067WS02003066       781.471      1461.662        20.879         1.853        11.051
  WS02001213WS02003059      1409.329      2337.239       115.122        14.066        71.002
  WS02001212WS02001213      1418.458      2352.366       115.862        14.157        71.458
  WS02001211WS02001212      1420.557      2355.794       116.042        14.179        71.570
  WS02003072WS02003073      2291.034      3958.119       145.971        17.171        88.299
  WS02003069WS02003072      2295.841      3965.913       146.371        17.220        88.546
  WS02003060WS02003069      2298.406      3970.326       146.524        17.238        88.638
  WS02003059WS02003060      1406.234      2332.001       114.902        14.040        70.868
  HS02004901HS02004770        13.093        25.473         0.248         0.019         0.116
  HS02004876HS02004881        45.512        90.341         0.999         0.073         0.491
  HS02004870HS02004876        34.381        68.101         0.798         0.060         0.395
  HS02004842HS02004848         6.456        12.343         0.134         0.009         0.062
  HS02004837HS02004842        11.058        19.638         0.603         0.068         0.356
  HS02004830HS02004837        70.294       122.721         4.643         0.552         2.827
  HS02004824HS02004830        71.066       123.976         4.715         0.561         2.871
  HS02004817HS02004824        97.159       176.398         5.254         0.596         3.134
  HS02004770HS02004777        49.661        97.710         1.021         0.069         0.472
  HS02004799HS02004480       162.320       310.826         4.263         0.379         2.210
  HS02004792HS02004799       147.272       280.116         4.028         0.367         2.105
  HS02004788HS02004792        82.816       157.684         2.666         0.255         1.440
  HS02004785HS02004788        51.121       100.047         1.172         0.089         0.567
  HS02004777HS02004785        50.447        98.943         1.112         0.081         0.530
  HS02004480HS02004478       204.809       395.158         4.972         0.429         2.543
  HS02004479HS02004480        46.126        90.110         1.037         0.091         0.538
  HS02004862HS02004870        25.798        50.337         0.628         0.050         0.314
  HS02004848HS02004852        10.251        19.884         0.210         0.014         0.097
  HS02004856HS02004862        17.524        34.748         0.350         0.023         0.164
  HS02004852HS02004856        10.255        19.889         0.210         0.014         0.097
  HS02004802HS02004478       115.334       214.034         5.397         0.592         3.169
  HS02004478WS02006287       319.670       608.432        10.331         1.017         5.689
  HS02004817HS02004807        95.852       174.300         5.130         0.581         3.057
  HS02004807HS02004802       115.591       214.438         5.430         0.596         3.189
  YS02001759YS02001757       314.937       578.166         6.284         0.438         3.072
  YS02001762YS02001759       180.316       333.314         3.742         0.265         1.847
  YS02001765YS02001762       181.716       336.773         3.791         0.269         1.874
  YS02001770YS02001767       184.107       343.417         3.682         0.249         1.793
  YS02001774YS02001770       300.641       582.038         5.798         0.386         2.804
  YS02001779YS02001774       300.119       581.006         5.890         0.401         2.867
  YS02001649YS02001757       397.441       719.143         8.029         0.550         3.869
  YS02001767YS02001765       183.366       340.615         3.837         0.273         1.899
  YS02006561YS02001783      1033.643      1916.822        21.644         1.615        10.769
  YS02001783YS02001784      1033.519      1916.622        21.640         1.614        10.766
  YS02001784YS02001785      1040.844      1928.351        22.353         1.704        11.212
  YS02001788YS02001790      1041.455      1929.340        22.426         1.713        11.258
  YS02001790YS02001791      1042.552      1931.155        22.527         1.726        11.322
  YS02001791YS02001793      1042.491      1931.053        22.523         1.725        11.319
  YS02001910YS02001907       391.247       721.628         9.390         0.718         4.811
  YS02001786YS02001788      1041.051      1928.704        22.381         1.707        11.230
  YS02001915YS02001910       391.287       721.689         9.341         0.711         4.779
  YS02001918YS02001915       186.133       328.330         5.126         0.466         2.761
  YS02001923YS02001920       165.539       295.020         3.167         0.222         1.537
  YS02001926YS02001923       164.499       293.285         3.098         0.214         1.495
  YS02001929YS02001926       164.240       292.852         3.066         0.210         1.475
  YS02001920YS02001918       185.323       326.662         5.081         0.462         2.734
  YS02001629YS02163301        96.067       169.864         2.028         0.131         0.946
  YS02001619YS02001622       175.867       321.122         3.601         0.236         1.684
  YS02001622YS02001625       174.689       319.249         3.573         0.234         1.671
  YS02001625YS02001629        97.150       171.636         2.052         0.132         0.957
  YS02163301YS02001633        96.431       170.739         2.030         0.132         0.948
  YS02163601YS02164001       405.675       733.057         7.898         0.562         3.783
  YS02164001YS02001641       405.138       732.145         7.877         0.560         3.772
  YS02001641YS02001644       405.199       732.166         7.873         0.560         3.769
  YS02001647YS02001649       499.891       917.006         9.977         0.689         4.777
  YS02006553YS02006556       699.757      1287.342        15.018         1.149         7.556
  YS02006556YS02006558       699.675      1287.169        14.989         1.145         7.536
  YSB6556YSB1171              26.521        51.966         0.537         0.045         0.272
  YS02001907YS02006553       699.886      1287.609        15.027         1.150         7.561
  YS02006558YS02006561      1033.688      1916.915        21.644         1.615        10.768
  YS02001633YS02163601       406.410       734.204         7.879         0.558         3.767
  YS02001644YS02001647       505.117       926.636        10.058         0.695         4.814
  YS02001745YS02001748       249.432       466.522         5.438         0.373         2.695
  YS02001748YS02001751       247.644       463.068         5.497         0.384         2.741
  YS02001751YS02001754       246.636       461.403         5.478         0.384         2.733
  YS02001754YS02001757       247.403       462.549         5.643         0.406         2.840
  YS02001882YS02001884         2.828         4.881         0.058         0.005         0.029
  YS02001884YS02001887         6.987        12.375         0.138         0.011         0.069
  YS02001890YS02001895       451.054       846.612         8.303         0.624         4.050
  YS02001895YS02001898       450.899       846.411         8.297         0.624         4.047
  YS02001898YS02001901       450.694       846.049         8.293         0.623         4.044
  YS02001901YS02001904       450.555       845.860         8.299         0.625         4.049
  YS02001904YS02001907       450.753       846.150         8.352         0.632         4.083
  YS02001887YS02001890       468.348       880.911         8.647         0.653         4.223
  YS02001652YS02001649       201.808       374.957         4.065         0.293         1.906
  YS02001655YS02001652       202.660       376.323         4.087         0.294         1.916
  YS02001658YS02001655       202.392       375.865         4.006         0.283         1.863
  YS02001661YS02001658       206.471       383.085         4.090         0.289         1.901
  YS02001664YS02001661       218.362       402.613         4.359         0.307         2.025
  YSB1154YSB6556              26.085        51.270         0.486         0.038         0.239
  YSB1174YSB1171              18.022        35.563         0.361         0.029         0.181
  YSB1171HS02004479           46.090        90.054         1.040         0.092         0.540
  HS02004881HS02006253        51.375       102.280         1.107         0.080         0.543
  YS02001793JiankangQianchi      1041.851      1929.888        22.466         1.718        11.283
  YS02001757CaochengTiaoxuchi       532.553       965.197        11.217         0.808         5.518
  WSF200WS02003060           781.147      1460.995        20.879         1.854        11.051
  1                         2297.146      3966.862       146.769        17.274        88.806
  CC-Pump-1                  136.429       249.574         2.845         0.207         1.400
  CC-Pump-2                   51.617        94.296         1.077         0.078         0.530
  JK-Pump-1                  290.210       534.750         6.402         0.498         3.237
  JK-Pump-2                  480.131       896.279         9.863         0.731         4.888
  XR-Pump-1                  379.429       628.060        31.265         3.825        19.297
  XR-Pump-2                  344.110       571.553        27.887         3.403        17.187
  XR-Pump-3                  331.363       551.161        26.665         3.251        16.424
  XR-Pump-4                  331.363       551.161        26.665         3.251        16.424
  

  Analysis begun on:  Fri Jul  9 18:26:52 2021
  Analysis ended on:  Fri Jul  9 18:26:55 2021
  Total elapsed time: 00:00:03