
  EPA STORM WATER MANAGEMENT MODEL - VERSION 5.1 (Build 5.3.0.dev0)
  --------------------------------------------------------------

  WARNING 04: minimum elevation drop used for Conduit WS02004404WS02004405
  WARNING 03: negative offset ignored for Link YS02001904YS02001907
  
  *********************************************************
  NOTE: The summary statistics displayed in this report are
  based on results found at every computational time step,  
  not just on results from each reporting time step.
  *********************************************************
  
  ****************
  Analysis Options
  ****************
  Flow Units ............... LPS
  Process Models:
    Rainfall/Runoff ........ YES
    RDII ................... NO
    Snowmelt ............... NO
    Groundwater ............ NO
    Flow Routing ........... YES
    Ponding Allowed ........ NO
    Water Quality .......... YES
  Infiltration Method ...... HORTON
  Flow Routing Method ...... DYNWAVE
  Surcharge Method ......... EXTRAN
  Starting Date ............ 08/28/2015 08:00:00
  Ending Date .............. 08/28/2015 15:50:00
  Antecedent Dry Days ...... 8.0
  Report Time Step ......... 00:01:00
  Wet Time Step ............ 00:01:00
  Dry Time Step ............ 00:01:00
  Routing Time Step ........ 5.00 sec
  Variable Time Step ....... YES
  Maximum Trials ........... 8
  Number of Threads ........ 4
  Head Tolerance ........... 0.001500 m
  
  
  **************************        Volume         Depth
  Runoff Quantity Continuity     hectare-m            mm
  **************************     ---------       -------
  Total Precipitation ......         4.120         9.021
  Evaporation Loss .........         0.000         0.000
  Infiltration Loss ........         0.806         1.764
  Surface Runoff ...........         2.634         5.766
  Final Storage ............         0.681         1.492
  Continuity Error (%) .....        -0.019
  
  
  **************************           COD            SS            TN            TP         NH4-N
  Runoff Quality Continuity             kg            kg            kg            kg            kg
  **************************    ----------    ----------    ----------    ----------    ----------
  Initial Buildup ..........     41378.656     70582.865      1804.177       168.684      1032.807
  Surface Buildup ..........        16.219        26.815         2.248         0.206         1.318
  Wet Deposition ...........         0.000         0.000         0.000         0.000         0.000
  Sweeping Removal .........         0.000         0.000         0.000         0.000         0.000
  Infiltration Loss ........        56.120       102.434         1.078         0.074         0.510
  BMP Removal ..............         0.000         0.000         0.000         0.000         0.000
  Surface Runoff ...........      1907.102      3390.650        37.625         2.496        17.797
  Remaining Buildup ........     39431.082     67115.582      1767.710       166.320      1015.813
  Continuity Error (%) .....         0.001         0.001         0.001         0.000         0.001
  
  
  **************************        Volume        Volume
  Flow Routing Continuity        hectare-m      10^6 ltr
  **************************     ---------     ---------
  Dry Weather Inflow .......         0.616         6.165
  Wet Weather Inflow .......         2.633        26.328
  Groundwater Inflow .......         0.000         0.000
  RDII Inflow ..............         0.000         0.000
  External Inflow ..........         0.102         1.024
  External Outflow .........         1.738        17.384
  Flooding Loss ............         1.219        12.189
  Evaporation Loss .........         0.000         0.000
  Exfiltration Loss ........         0.000         0.000
  Initial Stored Volume ....         0.076         0.761
  Final Stored Volume ......         0.572         5.724
  Continuity Error (%) .....        -2.978
  
  
  **************************           COD            SS            TN            TP         NH4-N
  Quality Routing Continuity            kg            kg            kg            kg            kg
  **************************    ----------    ----------    ----------    ----------    ----------
  Dry Weather Inflow .......      1541.201      2465.922       147.955        18.494        92.472
  Wet Weather Inflow .......      1906.642      3389.899        37.615         2.495        17.792
  Groundwater Inflow .......         0.000         0.000         0.000         0.000         0.000
  RDII Inflow ..............         0.000         0.000         0.000         0.000         0.000
  External Inflow ..........       183.418       293.469        17.608         2.201        11.005
  External Outflow .........      2184.495      3632.641       162.956        19.657        99.917
  Flooding Loss ............       903.359      1591.052        21.424         1.714        10.935
  Exfiltration Loss ........         0.000         0.000         0.000         0.000         0.000
  Mass Reacted .............         0.000         0.000         0.000         0.000         0.000
  Initial Stored Mass ......         0.000         0.000         0.000         0.000         0.000
  Final Stored Mass ........       432.658       737.224        16.338         1.643         9.212
  Continuity Error (%) .....         3.050         3.063         1.211         0.758         0.994
  
  
  *************************
  Highest Continuity Errors
  *************************
  Node HS02004842 (18.12%)
  Node JK-storage (-13.29%)
  Node YS02001884 (10.87%)
  Node YSB1171 (3.72%)
  Node WS02006253 (3.49%)
  
  
  ***************************
  Time-Step Critical Elements
  ***************************
  Link WS02006252WS02006251 (56.43%)
  Link YS02006556YS02006558 (12.50%)
  Link WS02006238WS02006235 (10.93%)
  Link WS02006280WS02006229 (6.92%)
  Link YS02001793JiankangQianchi (3.34%)
  
  
  ********************************
  Highest Flow Instability Indexes
  ********************************
  Link WS02006113WS02006111 (52)
  Link YS02163601YS02164001 (29)
  Link YS02001629YS02163301 (29)
  Link YS02001619YS02001622 (29)
  Link YS02163301YS02001633 (29)
  
  
  *************************
  Routing Time Step Summary
  *************************
  Minimum Time Step           :     0.50 sec
  Average Time Step           :     1.35 sec
  Maximum Time Step           :     5.00 sec
  Percent in Steady State     :    -0.00
  Average Iterations per Step :     4.02
  Percent Not Converging      :    18.43
  
  
  ***************************
  Subcatchment Runoff Summary
  ***************************
  
  ------------------------------------------------------------------------------------------------------------------------------
                            Total      Total      Total      Total     Imperv       Perv      Total       Total     Peak  Runoff
                           Precip      Runon       Evap      Infil     Runoff     Runoff     Runoff      Runoff   Runoff   Coeff
  Subcatchment                 mm         mm         mm         mm         mm         mm         mm    10^6 ltr      LPS
  ------------------------------------------------------------------------------------------------------------------------------
  sub0                       9.02       0.00       0.00       0.59       8.34       0.04       8.38        0.01     1.56   0.929
  sub1                       9.02       0.00       0.00       0.96       7.94       0.03       7.97        0.05    10.73   0.884
  sub2                       9.02       0.00       0.00       3.31       5.60       0.02       5.63        0.05     9.99   0.624
  sub3                       9.02       0.00       0.00       3.32       5.57       0.02       5.59        0.13    22.00   0.619
  sub4                       9.02       0.00       0.00       0.98       7.80       0.02       7.81        0.16    26.54   0.866
  sub5                       9.02       0.00       0.00       0.61       8.30       0.02       8.32        0.09    19.09   0.923
  sub7                       9.02       0.00       0.00       0.78       8.15       0.04       8.18        0.03     6.04   0.907
  sub8                       9.02       0.00       0.00       0.78       8.14       0.03       8.17        0.05    11.14   0.906
  sub9                       9.02       0.00       0.00       0.78       8.14       0.03       8.17        0.04     8.33   0.906
  sub10                      9.02       0.00       0.00       0.69       8.22       0.03       8.24        0.09    18.71   0.914
  sub11                      9.02       0.00       0.00       0.69       8.23       0.03       8.26        0.10    20.67   0.916
  sub12                      9.02       0.00       0.00       1.12       7.80       0.05       7.85        0.07    15.49   0.870
  sub14                      9.02       0.00       0.00       0.78       8.14       0.03       8.17        0.08    16.40   0.905
  sub15                      9.02       0.00       0.00       2.67       6.25       0.04       6.29        0.11    22.55   0.698
  sub16                      9.02       0.00       0.00       2.92       6.00       0.06       6.06        0.06    14.13   0.672
  sub17                      9.02       0.00       0.00       2.83       6.09       0.05       6.15        0.05    11.66   0.681
  sub22                      9.02       0.00       0.00       3.84       5.10       0.04       5.14        0.32    70.03   0.570
  sub23                      9.02       0.00       0.00       3.29       5.64       0.05       5.69        0.27    58.88   0.630
  sub60                      9.02       0.00       0.00       1.08       6.36       0.00       6.36        1.93   172.13   0.705
  sub61                      9.02       0.00       0.00       1.53       6.50       0.00       6.51        2.01   205.32   0.721
  sub62                      9.02       0.00       0.00       0.72       7.06       0.00       7.06        2.17   212.92   0.783
  sub63                      9.02       0.00       0.00       2.61       5.70       0.00       5.71        1.73   188.61   0.633
  sub64                      9.02       0.00       0.00       1.35       6.10       0.00       6.10        1.85   163.96   0.676
  sub65                      9.02       0.00       0.00       1.17       6.20       0.00       6.20        1.91   166.84   0.687
  sub66                      9.02       0.00       0.00       2.61       5.24       0.00       5.25        1.61   148.34   0.582
  sub67                      9.02       0.00       0.00       0.72       7.48       0.01       7.49        2.31   261.90   0.830
  sub68                      9.02       0.00       0.00       1.26       6.85       0.01       6.85        2.11   224.81   0.760
  sub69                      9.02       0.00       0.00       1.35       7.13       0.01       7.14        1.67   209.78   0.791
  sub70                      9.02       7.29       0.00       5.41       9.44       0.13       9.57        2.19   205.23   0.587
  sub71                      9.02       0.00       0.00       0.72       6.86       0.00       6.86        1.62   151.64   0.761
  sub72                      9.02       0.00       0.00       0.63       5.38       0.00       5.38        1.10    80.29   0.597
  1                          9.02       9.32       0.00       1.37      10.29       2.44      12.73        2.99   224.45   0.694
  2                          9.02       0.00       0.00       3.02       2.13       0.97       3.10        1.24   130.93   0.344
  
  
  ****************************
  Subcatchment Washoff Summary
  ****************************
  
  ------------------------------------------------------------------------------------------
                                 COD            SS            TN            TP         NH4-N
  Subcatchment                    kg            kg            kg            kg            kg
  ------------------------------------------------------------------------------------------
  sub0                         1.477         2.783         0.025         0.002         0.012
  sub1                         6.153        11.822         0.115         0.008         0.055
  sub2                         3.570         6.623         0.078         0.005         0.035
  sub3                         8.790        16.141         0.188         0.012         0.086
  sub4                        14.050        27.082         0.283         0.017         0.135
  sub5                        14.210        26.953         0.250         0.019         0.121
  sub7                         3.203         6.262         0.060         0.004         0.029
  sub8                         4.830         9.644         0.097         0.006         0.046
  sub9                         4.109         8.091         0.080         0.005         0.038
  sub10                       11.729        22.539         0.214         0.015         0.103
  sub11                       11.523        22.425         0.215         0.014         0.103
  sub12                        9.597        18.329         0.172         0.013         0.083
  sub14                        8.746        17.061         0.166         0.011         0.080
  sub15                       10.387        19.321         0.202         0.014         0.094
  sub16                        6.541        12.149         0.125         0.009         0.058
  sub17                        6.007        11.057         0.111         0.009         0.052
  sub22                       30.571        55.600         0.588         0.044         0.273
  sub23                       18.601        35.114         0.407         0.026         0.185
  sub60                      124.717       221.559         2.559         0.152         1.223
  sub61                      154.185       272.688         2.921         0.195         1.403
  sub62                      162.469       292.665         3.248         0.199         1.555
  sub63                      113.860       198.397         2.359         0.162         1.085
  sub64                      152.434       260.820         2.851         0.203         1.355
  sub65                      156.376       268.749         2.947         0.206         1.403
  sub66                       89.318       154.225         1.907         0.121         0.885
  sub67                      240.148       428.894         4.318         0.311         2.081
  sub68                      171.088       305.978         3.340         0.219         1.589
  sub69                      155.034       280.796         2.945         0.202         1.402
  sub70                      248.946       451.714         5.077         0.344         2.360
  sub71                      107.814       195.888         2.289         0.128         1.092
  sub72                       80.118       134.940         1.531         0.102         0.734
  1                          159.163       290.829         3.331         0.226         1.528
  2                           21.318        36.022         0.650         0.039         0.274
  ------------------------------------------------------------------------------------------
  System                    2311.082      4123.160        45.646         3.042        21.558
  
  
  ******************
  Node Depth Summary
  ******************
  
  ---------------------------------------------------------------------------------
                                 Average  Maximum  Maximum  Time of Max    Reported
                                   Depth    Depth      HGL   Occurrence   Max Depth
  Node                 Type       Meters   Meters   Meters  days hr:min      Meters
  ---------------------------------------------------------------------------------
  WS02001211           JUNCTION     0.76     0.79     5.63     0  05:21        0.79
  WS02001212           JUNCTION     0.47     0.51     5.57     0  05:20        0.51
  WS02001213           JUNCTION     0.70     0.76     5.52     0  05:19        0.76
  WS02003069           JUNCTION     0.48     0.58     5.16     0  05:18        0.58
  WS02003072           JUNCTION     0.54     0.64     5.01     0  05:19        0.64
  WS02003073           JUNCTION     0.33     0.39     4.46     0  05:19        0.39
  WS02003060           JUNCTION     0.43     0.51     5.44     0  05:18        0.51
  WS02003066           JUNCTION     0.22     0.30     5.85     0  05:16        0.30
  WS02003059           JUNCTION     0.75     0.81     5.49     0  05:19        0.81
  WS02003067           JUNCTION     0.55     0.70     6.02     0  05:16        0.70
  WS02004401           JUNCTION     0.65     0.86     6.86     0  05:13        0.85
  WS02004402           JUNCTION     0.68     0.88     6.84     0  05:13        0.88
  WS02004403           JUNCTION     0.70     0.90     6.83     0  05:13        0.90
  WS02004404           JUNCTION     0.78     0.97     6.82     0  05:13        0.97
  WS02004406           JUNCTION     0.78     0.96     6.79     0  05:14        0.96
  WS02004409           JUNCTION     0.46     0.67     6.44     0  05:15        0.67
  WS02004410           JUNCTION     0.48     0.68     6.40     0  05:15        0.68
  WS02004411           JUNCTION     0.49     0.69     6.37     0  05:15        0.69
  WS02004412           JUNCTION     0.51     0.70     6.34     0  05:16        0.70
  WS02004413           JUNCTION     0.67     0.86     6.33     0  05:16        0.86
  WS02004405           JUNCTION     0.77     0.96     6.81     0  05:13        0.96
  WS02006109           JUNCTION     0.73     0.99     7.61     0  05:07        0.98
  WS02006110           JUNCTION     0.72     0.93     7.52     0  05:04        0.93
  WS02006111           JUNCTION     0.21     0.29     7.00     0  05:05        0.29
  WS02006112           JUNCTION     0.81     1.07     6.96     0  02:06        1.05
  WS02006113           JUNCTION     0.32     0.46     7.36     0  05:04        0.46
  WS02006115           JUNCTION     0.53     0.76     6.90     0  05:13        0.76
  WS02006116           JUNCTION     0.62     0.84     6.88     0  05:13        0.84
  WS02006230           JUNCTION     0.69     1.13     7.87     0  05:04        1.12
  WS02006231           JUNCTION     0.45     0.87     8.00     0  05:04        0.86
  WS02006232           JUNCTION     0.58     1.07     8.11     0  05:04        1.06
  WS02006234           JUNCTION     0.50     1.08     8.23     0  05:04        1.07
  WS02006235           JUNCTION     0.53     1.17     8.33     0  05:08        1.15
  WS02006238           JUNCTION     0.56     1.19     8.34     0  05:04        1.18
  WS02006240           JUNCTION     0.44     1.18     8.47     0  03:51        1.13
  WS02006242           JUNCTION     0.49     1.29     8.56     0  03:51        1.21
  WS02006243           JUNCTION     0.36     1.24     8.66     0  03:51        1.12
  WS02006245           JUNCTION     0.34     1.25     8.74     0  03:51        1.10
  WS02006247           JUNCTION     0.35     1.24     8.74     0  03:51        1.13
  WS02006248           JUNCTION     0.29     1.10     8.69     0  03:51        1.07
  WS02006249           JUNCTION     0.32     1.09     8.69     0  03:51        1.09
  WS02006239           JUNCTION     0.50     1.18     8.38     0  05:04        1.17
  WS02006251           JUNCTION     0.30     1.23     8.90     0  05:03        1.13
  WS02006252           JUNCTION     0.22     0.79     9.03     0  05:03        0.68
  WS02006253           JUNCTION     0.33     1.27     8.92     0  05:03        1.16
  WS02006256           JUNCTION     1.58     2.35     9.28     0  00:12        2.35
  WS02004138           JUNCTION     0.19     0.20     7.45     0  00:00        0.19
  WS02004139           JUNCTION     0.71     0.74     5.65     0  05:21        0.74
  WS02004407           JUNCTION     0.21     0.30     6.61     0  05:14        0.30
  WS02006228           JUNCTION     0.72     1.03     7.68     0  05:04        1.03
  WS02006229           JUNCTION     0.70     1.03     7.73     0  05:04        1.03
  WS02006280           JUNCTION     0.06     0.17     8.44     0  01:41        0.17
  WS02006284           JUNCTION     0.36     0.52     8.92     0  01:41        0.52
  WS02006287           JUNCTION     0.09     0.25     9.20     0  01:41        0.25
  WSF200               JUNCTION     0.20     0.30     5.54     0  05:16        0.30
  HS02004901           JUNCTION     0.12     0.26    10.08     0  01:38        0.26
  HS02004881           JUNCTION     0.01     0.03     9.06     0  01:41        0.03
  HS02004876           JUNCTION     0.04     0.11     9.14     0  01:34        0.11
  HS02004870           JUNCTION     0.01     0.05     9.34     0  01:42        0.05
  HS02004862           JUNCTION     0.02     0.06     9.45     0  01:42        0.06
  HS02004856           JUNCTION     0.08     0.11     9.54     0  01:42        0.11
  HS02004852           JUNCTION     0.01     0.04     9.55     0  01:43        0.04
  HS02004848           JUNCTION     0.01     0.04     9.64     0  01:42        0.04
  HS02004842           JUNCTION     0.33     0.37     9.64     0  01:42        0.37
  HS02004837           JUNCTION     0.03     0.06     9.64     0  01:42        0.06
  HS02004830           JUNCTION     0.04     0.07     9.54     0  01:43        0.07
  HS02004824           JUNCTION     0.02     0.05     9.45     0  01:53        0.05
  HS02004817           JUNCTION     0.44     0.56     9.41     0  01:42        0.56
  HS02004807           JUNCTION     0.12     0.24     9.41     0  01:42        0.24
  HS02004802           JUNCTION     0.16     0.27     9.40     0  01:41        0.27
  HS02004799           JUNCTION     0.11     0.30     9.51     0  01:39        0.30
  HS02004792           JUNCTION     0.03     0.12     9.64     0  01:38        0.12
  HS02004788           JUNCTION     0.02     0.09     9.99     0  01:39        0.09
  HS02004785           JUNCTION     0.04     0.15    10.06     0  01:39        0.15
  HS02004777           JUNCTION     0.14     0.28    10.08     0  01:38        0.28
  HS02004770           JUNCTION     0.11     0.25    10.08     0  01:38        0.25
  HS02004480           JUNCTION     0.08     0.23     9.48     0  01:39        0.23
  HS02004479           JUNCTION     0.11     0.27     9.48     0  01:39        0.27
  HS02004478           JUNCTION     0.06     0.16     9.38     0  01:41        0.16
  YS02001745           JUNCTION     0.72     0.89     8.40     0  02:49        0.89
  YS02001748           JUNCTION     1.12     1.62     8.70     0  02:16        1.32
  YS02001751           JUNCTION     1.30     2.05     8.93     0  02:04        1.53
  YS02001754           JUNCTION     1.56     1.97     8.58     0  02:04        1.81
  YS02001762           JUNCTION     1.76     2.04     8.44     0  02:48        2.02
  YS02001765           JUNCTION     1.71     1.99     8.44     0  02:48        1.97
  YS02001767           JUNCTION     1.67     1.94     8.43     0  02:44        1.92
  YS02001770           JUNCTION     1.67     1.92     8.41     0  02:44        1.90
  YS02001774           JUNCTION     1.74     1.98     8.40     0  02:48        1.96
  YS02001779           JUNCTION     1.48     1.68     8.37     0  02:24        1.68
  YS02001882           JUNCTION     0.37     0.68     7.40     0  02:29        0.67
  YS02001884           JUNCTION     0.47     0.77     7.39     0  02:29        0.77
  YS02001759           JUNCTION     1.79     2.07     8.44     0  02:48        2.06
  YS02001887           JUNCTION     0.55     0.85     7.39     0  02:30        0.85
  YS02001890           JUNCTION     0.58     0.88     7.38     0  02:30        0.87
  YS02001898           JUNCTION     0.35     0.63     7.37     0  02:28        0.62
  YS02001901           JUNCTION     0.46     0.76     7.37     0  02:31        0.76
  YS02001904           JUNCTION     0.44     0.73     7.36     0  02:28        0.73
  YS02001907           JUNCTION     0.77     1.08     7.37     0  02:28        1.07
  YS02001910           JUNCTION     0.56     0.86     7.36     0  02:31        0.85
  YS02001915           JUNCTION     0.36     0.65     7.37     0  02:28        0.64
  YS02001918           JUNCTION     0.13     0.30     7.36     0  02:29        0.29
  YS02001619           JUNCTION     1.27     1.47     8.40     0  02:25        1.47
  YS02001629           JUNCTION     1.62     1.85     8.39     0  02:24        1.84
  YS02001641           JUNCTION     1.72     1.94     8.37     0  02:24        1.93
  YS02001644           JUNCTION     1.73     1.92     8.35     0  02:24        1.92
  YS02001652           JUNCTION     1.57     2.05     8.65     0  02:53        1.86
  YS02001655           JUNCTION     1.33     2.01     8.86     0  02:53        1.63
  YS02001920           JUNCTION     0.23     0.37     7.38     0  02:29        0.37
  YS02001923           JUNCTION     0.09     0.13     7.39     0  02:59        0.13
  YS02001926           JUNCTION     0.19     0.25     7.69     0  02:59        0.25
  YS02001929           JUNCTION     0.09     0.13     7.83     0  02:59        0.13
  YS02001658           JUNCTION     1.06     1.92     9.06     0  02:53        1.36
  YS02001661           JUNCTION     0.83     1.86     9.26     0  02:53        1.11
  YS02001664           JUNCTION     0.37     0.57     8.49     0  02:51        0.56
  YS02001622           JUNCTION     1.29     1.50     8.40     0  02:26        1.49
  YS02001633           JUNCTION     1.71     1.95     8.41     0  02:24        1.93
  YS02001649           JUNCTION     1.77     2.05     8.44     0  02:45        2.05
  YS02001757           JUNCTION     1.89     2.17     8.43     0  02:49        2.16
  YS02001895           JUNCTION     0.34     0.63     7.37     0  02:31        0.63
  YS02001625           JUNCTION     1.57     1.78     8.38     0  02:24        1.78
  YS02163301           JUNCTION     1.65     1.89     8.41     0  02:24        1.87
  YS02163601           JUNCTION     1.76     2.00     8.40     0  02:24        1.98
  YS02164001           JUNCTION     1.70     1.93     8.39     0  02:24        1.91
  YS02001647           JUNCTION     1.56     1.80     8.41     0  02:52        1.79
  YSB1154              JUNCTION     0.25     0.42     9.48     0  01:39        0.42
  YSB6556              JUNCTION     0.14     0.31     9.48     0  01:39        0.31
  YSB1174              JUNCTION     0.20     0.37     9.48     0  01:39        0.37
  YSB1171              JUNCTION     0.40     0.57     9.48     0  01:39        0.57
  YS02006553           JUNCTION     0.78     1.09     7.37     0  02:27        1.08
  YS02006561           JUNCTION     0.19     0.48     7.14     0  02:27        0.47
  YS02006556           JUNCTION     0.75     1.07     7.38     0  02:27        1.05
  YS02006558           JUNCTION     0.79     1.12     7.39     0  02:27        1.10
  YS02001783           JUNCTION     0.36     1.26     7.40     0  02:27        1.00
  YS02001784           JUNCTION     0.39     1.29     7.36     0  02:27        1.01
  YS02001786           JUNCTION     0.34     1.28     7.31     0  02:27        0.95
  YS02001788           JUNCTION     0.27     1.19     7.16     0  02:27        0.90
  YS02001790           JUNCTION     0.36     1.43     7.07     0  01:46        1.15
  YS02001791           JUNCTION     0.30     1.50     6.97     0  03:17        1.21
  YS02001793           JUNCTION     0.41     1.85     6.69     0  02:27        1.79
  WSC                  OUTFALL      0.33     0.39     1.06     0  05:20        0.39
  JK-storage           STORAGE      2.17     5.80     6.60     0  01:47        5.80
  CC-storage           STORAGE      1.14     1.40     8.40     0  02:49        1.40
  XR-storage           STORAGE      5.20     7.72     5.72     0  03:05        7.72
  
  
  *******************
  Node Inflow Summary
  *******************
  
  -------------------------------------------------------------------------------------------------
                                  Maximum  Maximum                  Lateral       Total        Flow
                                  Lateral    Total  Time of Max      Inflow      Inflow     Balance
                                   Inflow   Inflow   Occurrence      Volume      Volume       Error
  Node                 Type           LPS      LPS  days hr:min    10^6 ltr    10^6 ltr     Percent
  -------------------------------------------------------------------------------------------------
  WS02001211           JUNCTION      7.35   389.37     0  03:22       0.207        10.3       0.391
  WS02001212           JUNCTION      0.00   391.35     0  03:22           0        10.2       0.237
  WS02001213           JUNCTION      0.00   393.36     0  03:21           0        10.2       0.276
  WS02003069           JUNCTION      0.32   931.70     0  05:18     0.00902        17.5       0.198
  WS02003072           JUNCTION      0.00   931.65     0  05:19           0        17.4       0.236
  WS02003073           JUNCTION      1.82   933.55     0  05:19      0.0514        17.4       0.267
  WS02003060           JUNCTION     16.53   931.20     0  05:17       0.466        17.5       0.187
  WS02003066           JUNCTION      0.00   537.58     0  05:16           0         6.9       0.067
  WS02003059           JUNCTION      0.00   396.70     0  03:21           0        10.2       0.396
  WS02003067           JUNCTION      0.00   537.42     0  05:16           0        6.91       0.140
  WS02004401           JUNCTION      0.00   545.18     0  05:13           0        7.16       0.327
  WS02004402           JUNCTION      0.00   544.64     0  05:13           0        7.13       0.305
  WS02004403           JUNCTION      0.00   544.37     0  05:13           0        7.11       0.275
  WS02004404           JUNCTION      0.16   544.36     0  05:13     0.00457         7.1       0.205
  WS02004406           JUNCTION      0.00   544.32     0  05:14           0        7.06       0.499
  WS02004409           JUNCTION      0.00   543.89     0  05:14           0        7.02       0.255
  WS02004410           JUNCTION      0.00   541.23     0  05:14           0           7       0.282
  WS02004411           JUNCTION      0.00   539.24     0  05:15           0        6.98       0.286
  WS02004412           JUNCTION      0.00   538.29     0  05:15           0        6.96       0.306
  WS02004413           JUNCTION      0.00   537.62     0  05:16           0        6.94       0.448
  WS02004405           JUNCTION      0.04   544.32     0  05:13     0.00107        7.08       0.306
  WS02006109           JUNCTION      1.23   549.98     0  05:04      0.0347        7.24       0.240
  WS02006110           JUNCTION      0.00   549.92     0  05:04           0        7.22       0.313
  WS02006111           JUNCTION      0.00   571.59     0  05:05           0        7.18       0.076
  WS02006112           JUNCTION     11.66   555.82     0  05:05      0.0527        7.23       0.438
  WS02006113           JUNCTION      0.00   550.51     0  05:04           0         7.2       0.159
  WS02006115           JUNCTION      0.00   552.91     0  05:08           0         7.2       0.320
  WS02006116           JUNCTION      0.00   546.20     0  05:13           0        7.18       0.286
  WS02006230           JUNCTION     10.28   531.84     0  05:08        0.29        5.64       0.253
  WS02006231           JUNCTION      0.00   521.66     0  05:09           0        5.36       0.266
  WS02006232           JUNCTION      0.00   521.74     0  05:03           0        5.38       0.365
  WS02006234           JUNCTION      0.00   521.83     0  05:03           0        5.39       0.174
  WS02006235           JUNCTION      0.00   523.78     0  05:03           0        5.51       0.250
  WS02006238           JUNCTION      0.00   383.91     0  07:50           0        2.37       0.354
  WS02006240           JUNCTION      0.00   386.42     0  07:50           0        2.29       0.730
  WS02006242           JUNCTION      0.00   386.79     0  07:50           0        2.27       0.857
  WS02006243           JUNCTION      0.00   387.29     0  07:50           0        2.25       0.469
  WS02006245           JUNCTION      0.00   387.74     0  07:50           0        2.25       0.752
  WS02006247           JUNCTION      0.00   388.12     0  07:50           0        2.26       0.552
  WS02006248           JUNCTION      0.00   389.33     0  07:43           0        2.26       0.359
  WS02006249           JUNCTION      0.00   426.37     0  05:03           0        2.31       0.826
  WS02006239           JUNCTION      0.00   384.32     0  07:50           0        2.33       0.484
  WS02006251           JUNCTION      0.08   412.45     0  05:03     0.00217        2.38       0.667
  WS02006252           JUNCTION      0.00   400.00     0  05:00           0        2.04       0.031
  WS02006253           JUNCTION      1.56   126.49     0  05:01     0.00679        0.35       3.615
  WS02006256           JUNCTION      0.00   983.00     0  02:00           0        7.29       0.018
  WS02004138           JUNCTION      0.00   380.00     0  00:00           0        10.1       0.066
  WS02004139           JUNCTION      0.32   394.45     0  00:00     0.00905        10.1       0.449
  WS02004407           JUNCTION      0.00   544.07     0  05:14           0        7.03       0.116
  WS02006228           JUNCTION      0.00   548.60     0  05:04           0        7.22       0.194
  WS02006229           JUNCTION      0.00   547.77     0  05:03           0        7.23       0.209
  WS02006280           JUNCTION      0.00   293.89     0  01:41           0        1.61       0.004
  WS02006284           JUNCTION      0.10   293.91     0  01:41      0.0027        1.61       0.038
  WS02006287           JUNCTION      0.00   293.85     0  01:41           0        1.61       0.045
  WSF200               JUNCTION      0.00   537.65     0  05:16           0         6.9       0.063
  HS02004901           JUNCTION     14.13    14.13     0  01:35      0.0634      0.0638       2.834
  HS02004881           JUNCTION      6.04    59.47     0  01:40      0.0276       0.295       0.037
  HS02004876           JUNCTION     10.73    53.52     0  01:41       0.053       0.268       0.199
  HS02004870           JUNCTION     11.14    42.89     0  01:41      0.0522       0.215       0.048
  HS02004862           JUNCTION     10.19    32.12     0  01:42      0.0581       0.163       0.104
  HS02004856           JUNCTION      8.33    21.96     0  01:41      0.0393       0.106       1.371
  HS02004852           JUNCTION      0.00    13.91     0  01:42           0       0.067       0.077
  HS02004848           JUNCTION     22.00    22.00     0  01:52       0.126       0.126       0.033
  HS02004842           JUNCTION      0.00     8.57     0  01:56           0      0.0718      22.129
  HS02004837           JUNCTION     25.06    32.52     0  01:42        0.27       0.329       0.246
  HS02004830           JUNCTION      0.15    32.65     0  01:42     0.00423       0.319       0.388
  HS02004824           JUNCTION     26.59    58.69     0  01:53       0.164       0.482       0.111
  HS02004817           JUNCTION      0.60    59.28     0  01:53      0.0169       0.499       3.457
  HS02004807           JUNCTION     20.67    78.27     0  01:44       0.096       0.579       0.753
  HS02004802           JUNCTION      0.00    78.60     0  01:45           0       0.578       0.682
  HS02004799           JUNCTION     16.40   183.02     0  01:38      0.0777       0.894       0.333
  HS02004792           JUNCTION     70.31   166.68     0  01:38       0.333       0.817       0.049
  HS02004788           JUNCTION     24.22    96.80     0  01:39       0.155       0.485       0.079
  HS02004785           JUNCTION      0.15    72.64     0  01:38     0.00423       0.331       0.147
  HS02004777           JUNCTION      0.03    72.64     0  01:37    0.000846       0.331       1.592
  HS02004770           JUNCTION     58.88    72.83     0  01:36       0.271       0.333       0.930
  HS02004480           JUNCTION      0.00   217.16     0  01:39           0        1.05       0.084
  HS02004479           JUNCTION      0.00    34.25     0  01:40           0       0.171       0.429
  HS02004478           JUNCTION      0.00   293.84     0  01:41           0        1.62       0.023
  YS02001745           JUNCTION    172.13   352.22     0  02:15        1.93        1.94       0.551
  YS02001748           JUNCTION      0.04   514.58     0  02:14     0.00127        1.94       0.984
  YS02001751           JUNCTION      0.01   284.72     0  02:04     0.00031         1.9       1.254
  YS02001754           JUNCTION      0.26   235.81     0  02:14     0.00733        1.88       1.334
  YS02001762           JUNCTION      0.00   227.77     0  02:18           0        1.55       1.390
  YS02001765           JUNCTION      0.00   225.43     0  02:18           0        1.56       1.587
  YS02001767           JUNCTION      0.54   223.45     0  02:18      0.0151        1.58       2.322
  YS02001770           JUNCTION    213.08   327.61     0  02:55        2.17        2.34       1.355
  YS02001774           JUNCTION      0.00   328.19     0  02:55           0       0.905       2.857
  YS02001779           JUNCTION      0.01   328.75     0  02:55    0.000141       0.873       1.778
  YS02001882           JUNCTION      0.00    17.16     0  02:29           0      0.0162      13.977
  YS02001884           JUNCTION      0.00    34.30     0  02:29           0      0.0508      12.191
  YS02001759           JUNCTION    205.36   434.50     0  02:18        2.01        3.37       0.675
  YS02001887           JUNCTION    262.35   283.51     0  02:30        2.32        2.35       0.333
  YS02001890           JUNCTION      0.00   268.08     0  02:04           0        2.31       0.372
  YS02001898           JUNCTION      0.00   269.95     0  02:30           0        2.29       0.106
  YS02001901           JUNCTION      0.00   273.47     0  02:04           0        2.29       0.277
  YS02001904           JUNCTION      0.00   267.04     0  02:12           0        2.29       0.252
  YS02001907           JUNCTION      0.00   509.80     0  02:38           0        5.07       0.466
  YS02001910           JUNCTION      0.00   260.18     0  02:55           0        2.79       0.397
  YS02001915           JUNCTION    151.66   252.52     0  02:55        1.62        2.79       0.190
  YS02001918           JUNCTION      0.00    95.03     0  02:30           0        1.17       0.139
  YS02001619           JUNCTION    148.34   148.34     0  02:29        1.61        1.61       0.764
  YS02001629           JUNCTION      0.00   154.19     0  01:50           0        1.53       1.909
  YS02001641           JUNCTION      0.00   327.01     0  02:24           0        3.34       0.642
  YS02001644           JUNCTION    164.00   960.09     0  02:52        1.85        7.86       0.335
  YS02001652           JUNCTION      0.00   261.67     0  02:13           0        1.68       1.385
  YS02001655           JUNCTION      0.15   304.29     0  01:59     0.00434        1.71       1.504
  YS02001920           JUNCTION      2.87    83.24     0  02:59      0.0809        1.18       0.225
  YS02001923           JUNCTION      0.04    80.37     0  02:59     0.00106         1.1       0.041
  YS02001926           JUNCTION      0.05    80.34     0  02:59     0.00147         1.1       0.277
  YS02001929           JUNCTION     80.29    80.29     0  02:59         1.1         1.1       0.039
  YS02001658           JUNCTION      0.00   487.27     0  02:13           0        1.73       1.252
  YS02001661           JUNCTION      0.00   462.52     0  02:41           0        1.94      -0.059
  YS02001664           JUNCTION    188.61   319.39     0  03:58        1.73        1.94       0.257
  YS02001622           JUNCTION      0.00   152.09     0  02:03           0         1.6       2.019
  YS02001633           JUNCTION    167.04   322.74     0  02:24        1.91         3.4       0.945
  YS02001649           JUNCTION      0.00   711.15     0  02:13           0        5.28       0.708
  YS02001757           JUNCTION      0.00  1245.46     0  02:15           0        7.79       1.197
  YS02001895           JUNCTION      0.00   277.27     0  02:30           0         2.3       0.206
  YS02001625           JUNCTION      0.00   154.80     0  01:50           0        1.56       2.546
  YS02163301           JUNCTION      0.00   170.37     0  01:50           0        1.52       1.596
  YS02163601           JUNCTION      0.11   324.14     0  02:24      0.0031        3.36       0.905
  YS02164001           JUNCTION      0.00   325.48     0  02:24           0        3.34       0.597
  YS02001647           JUNCTION      0.00   499.78     0  02:52           0        4.51       0.624
  YSB1154              JUNCTION     19.09    19.09     0  01:39      0.0943      0.0949       1.543
  YSB6556              JUNCTION      0.00    19.22     0  01:39           0      0.0956       1.328
  YSB1174              JUNCTION     15.49    15.49     0  01:35      0.0686       0.069       1.890
  YSB1171              JUNCTION      0.00    34.50     0  01:38           0        0.17       3.865
  YS02006553           JUNCTION      0.00   509.80     0  02:38           0        5.06       0.295
  YS02006561           JUNCTION      0.00   733.23     0  02:38           0        7.13       0.009
  YS02006556           JUNCTION      0.00   509.93     0  02:38           0        5.07       0.212
  YS02006558           JUNCTION    225.69   742.06     0  02:02        2.13        7.17       0.062
  YS02001783           JUNCTION      0.00   732.46     0  02:27           0        7.13       0.023
  YS02001784           JUNCTION      1.06   729.47     0  02:38      0.0299        7.16       0.036
  YS02001786           JUNCTION      0.06   730.52     0  02:38     0.00159        7.16       0.036
  YS02001788           JUNCTION      0.07   771.30     0  02:40       0.002        7.16       0.027
  YS02001790           JUNCTION      0.15   818.44     0  02:39     0.00437        7.16       0.010
  YS02001791           JUNCTION      0.00   848.88     0  02:40           0        7.16       0.011
  YS02001793           JUNCTION      0.00   887.95     0  02:40           0        7.17      -0.061
  WSC                  OUTFALL       0.00   933.71     0  05:20           0        17.4       0.000
  JK-storage           STORAGE       0.00   889.43     0  02:40           0        7.33     -11.733
  CC-storage           STORAGE       0.00  1247.22     0  02:15           0        5.85       1.082
  XR-storage           STORAGE     525.74   525.74     0  02:57        9.87        10.5      -0.002
  
  
  **********************
  Node Surcharge Summary
  **********************
  
  Surcharging occurs when water rises above the top of the highest conduit.
  ---------------------------------------------------------------------
                                               Max. Height   Min. Depth
                                   Hours       Above Crown    Below Rim
  Node                 Type      Surcharged         Meters       Meters
  ---------------------------------------------------------------------
  WS02006109           JUNCTION        2.02          0.171        1.649
  WS02006110           JUNCTION        0.21          0.023        1.827
  WS02006112           JUNCTION        0.62          0.075        1.605
  WS02006230           JUNCTION        0.17          0.047        1.523
  WS02006231           JUNCTION        0.32          0.163        1.367
  WS02006232           JUNCTION        1.51          0.367        1.113
  WS02006234           JUNCTION        0.59          0.355        0.885
  WS02006235           JUNCTION        0.80          0.455        0.835
  WS02006238           JUNCTION        0.87          0.472        0.958
  WS02006240           JUNCTION        0.48          0.465        0.925
  WS02006242           JUNCTION        0.58          0.559        0.261
  WS02006243           JUNCTION        0.42          0.534        0.236
  WS02006245           JUNCTION        0.39          0.543        0.307
  WS02006247           JUNCTION        0.41          0.531        0.229
  WS02006248           JUNCTION        0.33          0.380        0.000
  WS02006249           JUNCTION        0.37          0.390        0.000
  WS02006239           JUNCTION        0.53          0.436        0.854
  WS02006251           JUNCTION        0.15          0.197        0.983
  WS02006252           JUNCTION        0.65          0.390        0.710
  WS02006253           JUNCTION        0.16          0.233        2.247
  WS02006256           JUNCTION        6.88          2.050        0.000
  WS02006228           JUNCTION        1.94          0.201        1.999
  YS02001748           JUNCTION        5.49          0.540        0.650
  YS02001751           JUNCTION        5.73          1.055        0.145
  YS02001754           JUNCTION        5.95          0.922        0.228
  YS02001762           JUNCTION        6.15          1.038        0.112
  YS02001765           JUNCTION        6.12          0.986        0.114
  YS02001767           JUNCTION        6.11          0.938        0.092
  YS02001770           JUNCTION        6.10          0.887        0.033
  YS02001774           JUNCTION        6.13          0.977        0.073
  YS02001779           JUNCTION        5.94          0.680        0.000
  YS02001759           JUNCTION        6.16          1.072        0.138
  YS02001907           JUNCTION        1.30          0.067        0.883
  YS02001619           JUNCTION        5.75          0.474        0.136
  YS02001629           JUNCTION        5.74          0.466        0.004
  YS02001641           JUNCTION        6.13          0.936        0.164
  YS02001644           JUNCTION        6.13          0.920        0.000
  YS02001652           JUNCTION        5.98          1.022        0.108
  YS02001655           JUNCTION        5.80          1.006        0.194
  YS02001658           JUNCTION        5.50          0.919        0.381
  YS02001661           JUNCTION        0.08          0.787        0.603
  YS02001622           JUNCTION        5.79          0.496        0.124
  YS02001633           JUNCTION        6.12          0.933        0.127
  YS02001649           JUNCTION        6.15          1.050        0.000
  YS02001757           JUNCTION        6.20          1.172        0.038
  YS02001625           JUNCTION        6.05          0.780        0.000
  YS02163301           JUNCTION        6.10          0.888        0.142
  YS02163601           JUNCTION        6.14          1.002        0.078
  YS02164001           JUNCTION        6.12          0.929        0.171
  YS02001647           JUNCTION        6.01          0.799        0.101
  YS02006553           JUNCTION        1.41          0.089        1.101
  YS02006556           JUNCTION        0.01          0.034        1.316
  YS02006558           JUNCTION        0.01          0.022        1.378
  YS02001783           JUNCTION        0.31          0.457        1.143
  YS02001784           JUNCTION        0.35          0.490        1.000
  YS02001786           JUNCTION        0.30          0.482        0.948
  YS02001788           JUNCTION        0.26          0.388        1.092
  YS02001790           JUNCTION        1.19          0.630        0.527
  YS02001791           JUNCTION        1.27          0.700        1.220
  YS02001793           JUNCTION        1.70          0.853        1.747
  
  
  *********************
  Node Flooding Summary
  *********************
  
  Flooding refers to all water that overflows a node, whether it ponds or not.
  --------------------------------------------------------------------------
                                                             Total   Maximum
                                 Maximum   Time of Max       Flood    Ponded
                        Hours       Rate    Occurrence      Volume     Depth
  Node                 Flooded       LPS   days hr:min    10^6 ltr    Meters
  --------------------------------------------------------------------------
  WS02006248              0.01     11.19      0  03:51       0.000     0.000
  WS02006249              0.15    103.06      0  05:03       0.035     0.000
  WS02006256              2.87    789.12      0  05:04       4.048     0.000
  YS02001779              2.19    328.49      0  02:55       0.854     0.000
  YS02001644              4.43    959.93      0  02:52       5.998     0.000
  YS02001649              0.01     24.75      0  03:02       0.000     0.000
  YS02001625              0.07     18.12      0  02:25       0.001     0.000
  JK-storage              0.91    570.74      0  01:49       0.960     0.000
  XR-storage              1.42    133.47      0  03:05       0.295     0.000
  
  
  **********************
  Storage Volume Summary
  **********************
  
  --------------------------------------------------------------------------------------------------
                         Average     Avg  Evap Exfil       Maximum     Max    Time of Max    Maximum
                          Volume    Pcnt  Pcnt  Pcnt        Volume    Pcnt     Occurrence    Outflow
  Storage Unit           1000 m3    Full  Loss  Loss       1000 m3    Full    days hr:min        LPS
  --------------------------------------------------------------------------------------------------
  JK-storage               0.109      37     0     0         0.291     100       0  01:47     983.00
  CC-storage               3.190      20     0     0         3.888      25       0  02:49     400.00
  XR-storage               0.624      67     0     0         0.926     100       0  03:05     380.00
  
  
  ***********************
  Outfall Loading Summary
  ***********************
  
  ---------------------------------------------------------------------------------------------------------------------------------
                         Flow       Avg       Max       Total         Total         Total         Total         Total         Total
                         Freq      Flow      Flow      Volume           COD            SS            TN            TP         NH4-N
  Outfall Node           Pcnt       LPS       LPS    10^6 ltr            kg            kg            kg            kg            kg
  ---------------------------------------------------------------------------------------------------------------------------------
  WSC                  100.00    676.46    933.71      17.384      2184.553      3632.726       162.964        19.658        99.922
  ---------------------------------------------------------------------------------------------------------------------------------
  System               100.00    676.46    933.71      17.384      2184.553      3632.726       162.964        19.658        99.922
  
  
  ********************
  Link Flow Summary
  ********************
  
  -----------------------------------------------------------------------------
                                 Maximum  Time of Max   Maximum    Max/    Max/
                                  |Flow|   Occurrence   |Veloc|    Full    Full
  Link                 Type          LPS  days hr:min     m/sec    Flow   Depth
  -----------------------------------------------------------------------------
  WS02003066WSF200     CONDUIT    537.65     0  05:16      2.76    0.09    0.23
  WS02006287WS02006284 CONDUIT    293.81     0  01:41      1.83    0.14    0.26
  WS02006284WS02006280 CONDUIT    293.89     0  01:41      2.07    0.12    0.24
  WS02006280WS02006229 CONDUIT    293.90     0  01:41      3.33    0.06    0.17
  WS02006229WS02006228 CONDUIT    548.60     0  05:04      1.09    1.82    1.00
  WS02006256WS02006235 CONDUIT    264.10     0  00:12      3.74    2.80    1.00
  WS02006253WS02006251 CONDUIT    125.28     0  05:01      0.56    0.38    1.00
  WS02006252WS02006251 CONDUIT    404.03     0  05:03      3.22    1.48    1.00
  WS02006251WS02006249 CONDUIT    426.37     0  05:03      1.11    1.23    1.00
  WS02006249WS02006248 CONDUIT    389.33     0  07:43      1.15    2.13    1.00
  WS02006248WS02006247 CONDUIT    388.12     0  07:50      1.10    0.84    1.00
  WS02006247WS02006245 CONDUIT    387.74     0  07:50      1.07    3.07    1.00
  WS02006245WS02006243 CONDUIT    387.29     0  07:50      1.08    1.15    1.00
  WS02006243WS02006242 CONDUIT    386.79     0  07:50      1.01    0.83    1.00
  WS02006242WS02006240 CONDUIT    386.42     0  07:50      1.00    1.53    1.00
  WS02006240WS02006239 CONDUIT    384.32     0  07:50      1.00    1.21    1.00
  WS02006239WS02006238 CONDUIT    383.91     0  07:50      1.00    1.23    1.00
  WS02006238WS02006235 CONDUIT    383.72     0  07:50      1.05    0.86    1.00
  WS02006235WS02006234 CONDUIT    521.83     0  05:03      1.36    5.51    1.00
  WS02006234WS02006232 CONDUIT    521.74     0  05:03      1.36    1.06    1.00
  WS02006232WS02006231 CONDUIT    521.66     0  05:09      1.36    1.09    1.00
  WS02006231WS02006230 CONDUIT    521.56     0  05:08      1.41    7.91    1.00
  WS02006230WS02006229 CONDUIT    533.48     0  05:03      1.39   11.87    1.00
  WS02006228WS02006109 CONDUIT    548.75     0  05:04      1.09    2.40    1.00
  WS02006116WS02004401 CONDUIT    545.18     0  05:13      0.88    0.75    0.85
  WS02006115WS02006116 CONDUIT    546.20     0  05:13      0.99    0.70    0.77
  WS02006113WS02006111 CONDUIT    571.59     0  05:05      2.48    0.69    0.47
  WS02006112WS02006115 CONDUIT    552.91     0  05:08      0.82    0.33    0.87
  WS02006111WS02006112 CONDUIT    555.75     0  05:05      1.58    0.26    0.68
  WS02006110WS02006113 CONDUIT    550.51     0  05:04      1.30    0.50    0.79
  WS02006109WS02006110 CONDUIT    549.92     0  05:04      1.09    1.06    1.00
  WS02004411WS02004412 CONDUIT    538.29     0  05:15      0.93    0.76    0.69
  WS02004401WS02004402 CONDUIT    544.64     0  05:13      0.88    0.65    0.87
  WS02004413WS02003067 CONDUIT    537.42     0  05:16      1.11    0.23    0.59
  WS02004412WS02004413 CONDUIT    537.62     0  05:16      0.82    0.36    0.78
  WS02004410WS02004411 CONDUIT    539.24     0  05:15      0.95    0.74    0.69
  WS02004409WS02004410 CONDUIT    541.23     0  05:14      1.03    0.70    0.67
  WS02004407WS02004409 CONDUIT    543.89     0  05:14      1.56    0.19    0.48
  WS02004406WS02004407 CONDUIT    544.07     0  05:14      1.05    0.24    0.63
  WS02004405WS02004406 CONDUIT    544.32     0  05:14      0.74    1.07    0.96
  WS02004404WS02004405 CONDUIT    544.29     0  05:13      0.96    5.33    0.96
  WS02004403WS02004404 CONDUIT    544.19     0  05:13      0.82    0.39    0.93
  WS02004402WS02004403 CONDUIT    544.37     0  05:13      0.87    0.78    0.89
  WS02004139WS02001211 CONDUIT    382.02     0  03:22      0.90    0.48    0.60
  WS02004138WS02004139 CONDUIT    394.13     0  00:00      3.62    0.08    0.44
  WS02003067WS02003066 CONDUIT    537.58     0  05:16      1.21    0.17    0.42
  WS02001213WS02003059 CONDUIT    396.70     0  03:21      0.89    0.65    0.77
  WS02001212WS02001213 CONDUIT    393.36     0  03:21      1.32    0.61    0.47
  WS02001211WS02001212 CONDUIT    391.35     0  03:22      0.78    0.30    0.65
  WS02003072WS02003073 CONDUIT    931.73     0  05:19      1.72    2.01    0.48
  WS02003069WS02003072 CONDUIT    931.65     0  05:19      1.62    0.45    0.51
  WS02003060WS02003069 CONDUIT    931.38     0  05:18      1.86    0.36    0.45
  WS02003059WS02003060 CONDUIT    401.32     0  03:20      0.95    0.26    0.66
  HS02004901HS02004770 CONDUIT     13.98     0  01:36      0.07    0.05    0.36
  HS02004876HS02004881 CONDUIT     53.62     0  01:41      0.78    0.57    0.10
  HS02004870HS02004876 CONDUIT     42.88     0  01:42      0.54    0.03    0.11
  HS02004842HS02004848 CONDUIT      8.57     0  01:56      0.04    0.00    0.29
  HS02004837HS02004842 CONDUIT      8.74     0  01:59      0.42    0.01    0.30
  HS02004830HS02004837 CONDUIT     32.50     0  01:42      0.50    0.03    0.09
  HS02004824HS02004830 CONDUIT     32.65     0  01:43      0.54    0.04    0.09
  HS02004817HS02004824 CONDUIT     58.68     0  01:53      0.19    0.03    0.44
  HS02004770HS02004777 CONDUIT     72.61     0  01:37      0.28    0.13    0.37
  HS02004799HS02004480 CONDUIT    182.95     0  01:38      0.70    0.23    0.37
  HS02004792HS02004799 CONDUIT    166.64     0  01:38      0.80    0.10    0.30
  HS02004788HS02004792 CONDUIT     96.77     0  01:39      0.94    0.06    0.15
  HS02004785HS02004788 CONDUIT     72.61     0  01:39      0.60    0.55    0.17
  HS02004777HS02004785 CONDUIT     72.49     0  01:38      0.34    0.09    0.31
  HS02004480HS02004478 CONDUIT    216.96     0  01:39      1.11    0.91    0.28
  HS02004479HS02004480 CONDUIT     34.45     0  01:41      0.37    0.03    0.36
  HS02004862HS02004870 CONDUIT     32.10     0  01:42      0.56    0.03    0.08
  HS02004848HS02004852 CONDUIT     13.91     0  01:42      0.38    0.02    0.05
  HS02004856HS02004862 CONDUIT     21.94     0  01:42      0.41    0.02    0.08
  HS02004852HS02004856 CONDUIT     13.90     0  01:43      0.18    0.02    0.11
  HS02004802HS02004478 CONDUIT     78.95     0  01:46      0.38    0.07    0.30
  HS02004478WS02006287 CONDUIT    293.85     0  01:41      1.53    0.08    0.21
  HS02004817HS02004807 CONDUIT     59.61     0  01:54      0.15    0.04    0.57
  HS02004807HS02004802 CONDUIT     78.60     0  01:45      0.32    0.15    0.35
  YS02001759YS02001757 CONDUIT    436.09     0  02:18      0.56    0.31    1.00
  YS02001762YS02001759 CONDUIT    229.97     0  02:18      0.29    0.26    1.00
  YS02001765YS02001762 CONDUIT    227.77     0  02:18      0.30    0.21    1.00
  YS02001770YS02001767 CONDUIT    222.91     0  02:18      0.42    0.88    1.00
  YS02001774YS02001770 CONDUIT    328.19     0  02:55      0.42    0.21    1.00
  YS02001779YS02001774 CONDUIT    328.74     0  02:55      0.42    0.17    1.00
  YS02001649YS02001757 CONDUIT    712.63     0  02:14      0.91    0.43    1.00
  YS02001767YS02001765 CONDUIT    225.43     0  02:18      0.40    0.28    1.00
  YS02006561YS02001783 CONDUIT    732.46     0  02:27      2.13    0.38    0.80
  YS02001783YS02001784 CONDUIT    728.41     0  02:38      1.61    1.00    1.00
  YS02001784YS02001785 CONDUIT    730.46     0  02:38      1.74    1.70    1.00
  YS02001788YS02001790 CONDUIT    818.28     0  02:39      2.28    0.60    1.00
  YS02001790YS02001791 CONDUIT    848.88     0  02:40      2.78    0.92    1.00
  YS02001791YS02001793 CONDUIT    887.95     0  02:40      5.64    0.38    1.00
  YS02001910YS02001907 CONDUIT    255.78     0  03:05      0.49    0.14    0.93
  YS02001786YS02001788 CONDUIT    771.23     0  02:40      2.19    1.49    1.00
  YS02001915YS02001910 CONDUIT    260.18     0  02:55      0.65    0.13    0.75
  YS02001918YS02001915 CONDUIT    110.95     0  02:55      0.44    0.06    0.46
  YS02001923YS02001920 CONDUIT     80.37     0  02:59      0.63    0.04    0.25
  YS02001926YS02001923 CONDUIT     80.33     0  02:59      0.71    0.11    0.20
  YS02001929YS02001926 CONDUIT     80.29     0  02:59      0.77    0.04    0.19
  YS02001920YS02001918 CONDUIT     95.03     0  02:30      0.62    0.09    0.33
  YS02001629YS02163301 CONDUIT    170.37     0  01:50      0.22    0.21    1.00
  YS02001619YS02001622 CONDUIT    152.09     0  02:03      0.70    0.22    1.00
  YS02001622YS02001625 CONDUIT    154.80     0  01:50      0.46    0.08    1.00
  YS02001625YS02001629 CONDUIT    154.19     0  01:50      0.28    0.07    1.00
  YS02163301YS02001633 CONDUIT    170.81     0  01:50      0.22    0.16    1.00
  YS02163601YS02164001 CONDUIT    325.48     0  02:24      0.41    0.29    1.00
  YS02164001YS02001641 CONDUIT    327.01     0  02:24      0.42    0.45    1.00
  YS02001641YS02001644 CONDUIT    327.83     0  02:24      0.42    1.06    1.00
  YS02001647YS02001649 CONDUIT    499.78     0  02:52      0.64    0.26    1.00
  YS02006553YS02006556 CONDUIT    509.93     0  02:38      0.65    0.44    1.00
  YS02006556YS02006558 CONDUIT    523.71     0  02:02      0.67    0.41    1.00
  YSB6556YSB1171       CONDUIT     19.44     0  01:42      0.09    0.02    0.63
  YS02001907YS02006553 CONDUIT    509.80     0  02:38      0.57    0.60    1.00
  YS02006558YS02006561 CONDUIT    733.23     0  02:38      3.28    1.62    0.90
  YS02001633YS02163601 CONDUIT    324.03     0  02:24      0.41    0.34    1.00
  YS02001644YS02001647 CONDUIT    500.08     0  02:52      0.64    0.29    1.00
  YS02001745YS02001748 CONDUIT    514.54     0  02:14      1.56    0.20    0.94
  YS02001748YS02001751 CONDUIT    284.71     0  02:04      1.17    0.14    1.00
  YS02001751YS02001754 CONDUIT    235.55     0  02:14      1.01    0.11    1.00
  YS02001754YS02001757 CONDUIT    237.01     0  02:14      0.33    0.10    1.00
  YS02001882YS02001884 CONDUIT     22.57     0  02:30      0.16    0.03    0.70
  YS02001884YS02001887 CONDUIT     34.30     0  02:29      0.12    0.05    0.78
  YS02001890YS02001895 CONDUIT    277.27     0  02:30      0.44    0.13    0.75
  YS02001895YS02001898 CONDUIT    269.95     0  02:30      0.58    0.47    0.61
  YS02001898YS02001901 CONDUIT    273.47     0  02:04      0.49    0.18    0.69
  YS02001901YS02001904 CONDUIT    267.04     0  02:12      0.44    0.41    0.75
  YS02001904YS02001907 CONDUIT    272.06     0  02:05      0.38    0.10    0.87
  YS02001887YS02001890 CONDUIT    268.08     0  02:04      0.39    0.46    0.84
  YS02001652YS02001649 CONDUIT    262.54     0  02:13      0.72    0.13    1.00
  YS02001655YS02001652 CONDUIT    261.67     0  02:13      1.08    0.13    1.00
  YS02001658YS02001655 CONDUIT    304.14     0  01:59      1.35    0.13    1.00
  YS02001661YS02001658 CONDUIT    487.27     0  02:13      1.65    0.19    1.00
  YS02001664YS02001661 CONDUIT    462.52     0  02:41      1.51    0.15    0.73
  YSB1154YSB6556       CONDUIT     19.22     0  01:39      0.15    0.03    0.52
  YSB1174YSB1171       CONDUIT     15.56     0  01:36      0.07    0.02    0.64
  YSB1171HS02004479    CONDUIT     34.25     0  01:40      0.54    0.02    0.50
  HS02004881HS02006253 CONDUIT     59.46     0  01:41      1.96    0.01    0.50
  YS02001793JiankangQianchi CONDUIT    889.43     0  02:40     17.52    0.07    1.00
  YS02001757CaochengTiaoxuchi CONDUIT   1247.22     0  02:15      2.23    0.55    1.00
  WSF200WS02003060     CONDUIT    538.01     0  05:16      1.59    0.12    0.34
  1                    CONDUIT    933.71     0  05:20      3.27    0.33    0.39
  CC-Pump-1            PUMP       200.00     0  05:00              1.00
  CC-Pump-2            PUMP       200.00     0  05:00              1.00
  JK-Pump-1            PUMP       300.00     0  02:00              1.00
  JK-Pump-2            PUMP       683.00     0  02:00              1.00
  XR-Pump-1            PUMP        95.00     0  00:00              1.00
  XR-Pump-2            PUMP        95.00     0  00:00              1.00
  XR-Pump-3            PUMP        95.00     0  00:00              1.00
  XR-Pump-4            PUMP        95.00     0  00:00              1.00
  
  
  ***************************
  Flow Classification Summary
  ***************************
  
  -------------------------------------------------------------------------------------
                      Adjusted    ---------- Fraction of Time in Flow Class ---------- 
                       /Actual         Up    Down  Sub   Sup   Up    Down  Norm  Inlet 
  Conduit               Length    Dry  Dry   Dry   Crit  Crit  Crit  Crit  Ltd   Ctrl  
  -------------------------------------------------------------------------------------
  WS02003066WSF200        1.00   0.02  0.05  0.00  0.00  0.94  0.00  0.00  0.70  0.00
  WS02006287WS02006284    1.00   0.03  0.01  0.00  0.65  0.30  0.00  0.00  0.74  0.00
  WS02006284WS02006280    1.00   0.04  0.00  0.00  0.00  0.00  0.00  0.96  0.00  0.00
  WS02006280WS02006229    1.00   0.04  0.00  0.00  0.00  0.00  0.00  0.96  0.00  0.00
  WS02006229WS02006228    1.00   0.00  0.00  0.00  1.00  0.00  0.00  0.00  0.00  0.00
  WS02006256WS02006235    1.00   0.01  0.00  0.00  0.99  0.01  0.00  0.00  0.00  0.00
  WS02006253WS02006251    1.00   0.02  0.02  0.00  0.95  0.00  0.01  0.00  0.00  0.00
  WS02006252WS02006251    1.00   0.23  0.00  0.00  0.01  0.00  0.75  0.00  0.00  0.00
  WS02006251WS02006249    1.00   0.00  0.00  0.00  1.00  0.00  0.00  0.00  0.33  0.00
  WS02006249WS02006248    1.00   0.00  0.00  0.00  0.84  0.00  0.16  0.00  0.00  0.00
  WS02006248WS02006247    1.00   0.01  0.00  0.00  0.99  0.00  0.00  0.01  0.21  0.00
  WS02006247WS02006245    1.00   0.01  0.00  0.00  0.98  0.00  0.00  0.02  0.00  0.00
  WS02006245WS02006243    1.00   0.01  0.00  0.00  0.92  0.00  0.00  0.07  0.01  0.00
  WS02006243WS02006242    1.00   0.01  0.00  0.00  0.99  0.00  0.00  0.00  0.32  0.00
  WS02006242WS02006240    1.00   0.01  0.00  0.00  0.99  0.00  0.00  0.00  0.00  0.00
  WS02006240WS02006239    1.00   0.01  0.00  0.00  0.93  0.00  0.00  0.06  0.01  0.00
  WS02006239WS02006238    1.00   0.01  0.00  0.00  0.99  0.00  0.00  0.00  0.12  0.00
  WS02006238WS02006235    1.00   0.01  0.00  0.00  0.99  0.00  0.00  0.00  0.00  0.00
  WS02006235WS02006234    1.00   0.01  0.00  0.00  0.96  0.00  0.04  0.00  0.00  0.00
  WS02006234WS02006232    1.00   0.01  0.00  0.00  0.99  0.00  0.00  0.00  0.04  0.00
  WS02006232WS02006231    1.00   0.01  0.00  0.00  0.99  0.00  0.00  0.00  0.00  0.00
  WS02006231WS02006230    1.00   0.01  0.00  0.00  0.54  0.00  0.45  0.00  0.00  0.00
  WS02006230WS02006229    1.00   0.00  0.00  0.00  0.99  0.00  0.00  0.01  0.00  0.00
  WS02006228WS02006109    1.00   0.00  0.00  0.00  1.00  0.00  0.00  0.00  0.01  0.00
  WS02006116WS02004401    1.00   0.02  0.00  0.00  0.98  0.00  0.00  0.00  0.00  0.00
  WS02006115WS02006116    1.00   0.01  0.00  0.00  0.98  0.00  0.00  0.00  0.00  0.00
  WS02006113WS02006111    1.00   0.01  0.00  0.00  0.00  0.99  0.00  0.00  0.21  0.00
  WS02006112WS02006115    1.00   0.01  0.00  0.00  0.98  0.00  0.00  0.00  0.00  0.00
  WS02006111WS02006112    1.00   0.01  0.00  0.00  0.99  0.00  0.00  0.00  0.96  0.00
  WS02006110WS02006113    1.00   0.00  0.01  0.00  0.99  0.00  0.00  0.00  0.00  0.00
  WS02006109WS02006110    1.00   0.00  0.00  0.00  0.99  0.00  0.00  0.00  0.00  0.00
  WS02004411WS02004412    1.00   0.03  0.00  0.00  0.97  0.00  0.00  0.00  0.00  0.00
  WS02004401WS02004402    1.00   0.02  0.00  0.00  0.98  0.00  0.00  0.00  0.00  0.00
  WS02004413WS02003067    1.00   0.03  0.02  0.00  0.00  0.00  0.95  0.00  0.00  0.00
  WS02004412WS02004413    1.00   0.03  0.00  0.00  0.97  0.00  0.00  0.00  0.02  0.00
  WS02004410WS02004411    1.00   0.03  0.00  0.00  0.97  0.00  0.00  0.00  0.03  0.00
  WS02004409WS02004410    1.00   0.03  0.00  0.00  0.97  0.00  0.00  0.00  0.04  0.00
  WS02004407WS02004409    1.00   0.03  0.00  0.00  0.97  0.00  0.00  0.00  0.91  0.00
  WS02004406WS02004407    1.00   0.00  0.03  0.00  0.97  0.00  0.00  0.00  0.00  0.00
  WS02004405WS02004406    1.00   0.00  0.00  0.00  1.00  0.00  0.00  0.00  0.02  0.00
  WS02004404WS02004405    1.00   0.00  0.00  0.00  1.00  0.00  0.00  0.00  0.00  0.00
  WS02004403WS02004404    1.00   0.00  0.02  0.00  0.98  0.00  0.00  0.00  0.00  0.00
  WS02004402WS02004403    1.00   0.02  0.00  0.00  0.98  0.00  0.00  0.00  0.00  0.00
  WS02004139WS02001211    1.00   0.00  0.00  0.00  1.00  0.00  0.00  0.00  0.00  0.00
  WS02004138WS02004139    1.00   0.00  0.00  0.00  1.00  0.00  0.00  0.00  1.00  0.00
  WS02003067WS02003066    1.00   0.05  0.01  0.00  0.94  0.00  0.00  0.00  0.00  0.00
  WS02001213WS02003059    1.00   0.00  0.00  0.00  1.00  0.00  0.00  0.00  0.00  0.00
  WS02001212WS02001213    1.00   0.00  0.00  0.00  0.93  0.00  0.07  0.00  0.00  0.00
  WS02001211WS02001212    1.00   0.00  0.00  0.00  1.00  0.00  0.00  0.00  0.00  0.00
  WS02003072WS02003073    1.00   0.00  0.00  0.00  0.00  0.00  0.00  1.00  0.00  0.00
  WS02003069WS02003072    1.00   0.00  0.00  0.00  1.00  0.00  0.00  0.00  0.06  0.00
  WS02003060WS02003069    1.00   0.00  0.00  0.00  0.99  0.01  0.00  0.00  0.05  0.00
  WS02003059WS02003060    1.00   0.00  0.00  0.00  1.00  0.00  0.00  0.00  0.00  0.00
  HS02004901HS02004770    1.00   0.04  0.00  0.00  0.96  0.00  0.00  0.00  0.00  0.00
  HS02004876HS02004881    1.00   0.01  0.00  0.00  0.99  0.00  0.00  0.00  0.00  0.00
  HS02004870HS02004876    1.00   0.00  0.00  0.00  0.99  0.00  0.00  0.00  0.95  0.00
  HS02004842HS02004848    1.00   0.00  0.04  0.00  0.96  0.00  0.00  0.00  0.58  0.00
  HS02004837HS02004842    1.00   0.00  0.00  0.00  1.00  0.00  0.00  0.00  0.11  0.00
  HS02004830HS02004837    1.00   0.00  0.00  0.00  1.00  0.00  0.00  0.00  0.99  0.00
  HS02004824HS02004830    1.00   0.00  0.00  0.00  1.00  0.00  0.00  0.00  0.00  0.00
  HS02004817HS02004824    1.00   0.00  0.00  0.00  1.00  0.00  0.00  0.00  1.00  0.00
  HS02004770HS02004777    1.00   0.00  0.04  0.00  0.96  0.00  0.00  0.00  0.01  0.00
  HS02004799HS02004480    1.00   0.00  0.01  0.00  0.95  0.00  0.03  0.00  0.00  0.00
  HS02004792HS02004799    1.00   0.00  0.00  0.00  1.00  0.00  0.00  0.00  0.98  0.00
  HS02004788HS02004792    1.00   0.00  0.00  0.00  1.00  0.00  0.00  0.00  0.98  0.00
  HS02004785HS02004788    1.00   0.00  0.00  0.00  1.00  0.00  0.00  0.00  0.00  0.00
  HS02004777HS02004785    1.00   0.00  0.00  0.00  1.00  0.00  0.00  0.00  0.11  0.00
  HS02004480HS02004478    1.00   0.04  0.00  0.00  0.67  0.00  0.00  0.29  0.00  0.00
  HS02004479HS02004480    1.00   0.01  0.00  0.00  0.99  0.00  0.00  0.00  0.11  0.00
  HS02004862HS02004870    1.00   0.00  0.00  0.00  1.00  0.00  0.00  0.00  0.02  0.00
  HS02004848HS02004852    1.00   0.04  0.00  0.00  0.96  0.00  0.00  0.00  0.79  0.00
  HS02004856HS02004862    1.00   0.00  0.05  0.00  0.95  0.00  0.00  0.00  0.84  0.00
  HS02004852HS02004856    1.00   0.04  0.00  0.00  0.96  0.00  0.00  0.00  0.86  0.00
  HS02004802HS02004478    1.00   0.04  0.00  0.00  0.96  0.00  0.00  0.00  0.02  0.00
  HS02004478WS02006287    1.00   0.05  0.00  0.00  0.81  0.15  0.00  0.00  0.72  0.00
  HS02004817HS02004807    1.00   0.00  0.04  0.00  0.96  0.00  0.00  0.00  0.01  0.00
  HS02004807HS02004802    1.00   0.04  0.00  0.00  0.96  0.00  0.00  0.00  0.00  0.00
  YS02001759YS02001757    1.00   0.00  0.00  0.00  1.00  0.00  0.00  0.00  0.15  0.00
  YS02001762YS02001759    1.00   0.00  0.00  0.00  1.00  0.00  0.00  0.00  0.02  0.00
  YS02001765YS02001762    1.00   0.00  0.00  0.00  1.00  0.00  0.00  0.00  0.13  0.00
  YS02001770YS02001767    1.00   0.00  0.00  0.00  1.00  0.00  0.00  0.00  0.00  0.00
  YS02001774YS02001770    1.00   0.00  0.04  0.00  0.96  0.00  0.00  0.00  0.01  0.00
  YS02001779YS02001774    1.00   0.00  0.00  0.00  1.00  0.00  0.00  0.00  0.16  0.00
  YS02001649YS02001757    1.00   0.00  0.00  0.00  1.00  0.00  0.00  0.00  0.15  0.00
  YS02001767YS02001765    1.00   0.00  0.00  0.00  1.00  0.00  0.00  0.00  0.00  0.00
  YS02006561YS02001783    1.00   0.05  0.00  0.00  0.14  0.81  0.00  0.00  0.60  0.00
  YS02001783YS02001784    1.00   0.00  0.05  0.00  0.95  0.00  0.00  0.00  0.00  0.00
  YS02001784YS02001785    1.00   0.00  0.00  0.00  1.00  0.00  0.00  0.00  0.16  0.00
  YS02001788YS02001790    1.00   0.00  0.00  0.00  0.22  0.78  0.00  0.00  0.55  0.00
  YS02001790YS02001791    1.00   0.00  0.00  0.00  0.18  0.82  0.00  0.00  0.56  0.00
  YS02001791YS02001793    1.00   0.00  0.00  0.00  0.26  0.74  0.00  0.00  0.07  0.00
  YS02001910YS02001907    1.00   0.00  0.00  0.00  0.99  0.00  0.00  0.01  0.12  0.00
  YS02001786YS02001788    1.00   0.00  0.00  0.00  0.17  0.83  0.00  0.00  0.00  0.00
  YS02001915YS02001910    1.00   0.00  0.00  0.00  0.99  0.01  0.00  0.00  0.13  0.00
  YS02001918YS02001915    1.00   0.00  0.00  0.00  0.99  0.00  0.00  0.00  0.61  0.00
  YS02001923YS02001920    1.00   0.00  0.00  0.00  1.00  0.00  0.00  0.00  1.00  0.00
  YS02001926YS02001923    1.00   0.00  0.02  0.00  0.00  0.00  0.98  0.00  0.00  0.00
  YS02001929YS02001926    1.00   0.00  0.04  0.00  0.96  0.00  0.00  0.00  0.87  0.00
  YS02001920YS02001918    1.00   0.00  0.00  0.00  1.00  0.00  0.00  0.00  0.00  0.00
  YS02001629YS02163301    1.00   0.04  0.00  0.00  0.95  0.00  0.00  0.00  0.00  0.00
  YS02001619YS02001622    1.00   0.04  0.00  0.00  0.96  0.00  0.00  0.00  0.00  0.00
  YS02001622YS02001625    1.00   0.04  0.00  0.00  0.96  0.00  0.00  0.00  0.03  0.00
  YS02001625YS02001629    1.00   0.04  0.01  0.00  0.93  0.00  0.02  0.00  0.00  0.00
  YS02163301YS02001633    1.00   0.00  0.04  0.00  0.96  0.00  0.00  0.00  0.00  0.00
  YS02163601YS02164001    1.00   0.00  0.03  0.00  0.97  0.00  0.00  0.00  0.00  0.00
  YS02164001YS02001641    1.00   0.00  0.02  0.00  0.97  0.00  0.00  0.00  0.05  0.00
  YS02001641YS02001644    1.00   0.00  0.00  0.00  1.00  0.00  0.00  0.00  0.00  0.00
  YS02001647YS02001649    1.00   0.00  0.05  0.00  0.95  0.00  0.00  0.00  0.01  0.00
  YS02006553YS02006556    1.00   0.00  0.00  0.00  1.00  0.00  0.00  0.00  0.03  0.00
  YS02006556YS02006558    1.00   0.00  0.00  0.00  1.00  0.00  0.00  0.00  0.00  0.00
  YSB6556YSB1171          1.00   0.01  0.02  0.00  0.96  0.00  0.00  0.00  0.00  0.00
  YS02001907YS02006553    1.00   0.00  0.01  0.00  0.99  0.00  0.00  0.00  0.00  0.00
  YS02006558YS02006561    1.00   0.05  0.00  0.00  0.00  0.95  0.00  0.00  0.58  0.00
  YS02001633YS02163601    1.00   0.00  0.00  0.00  1.00  0.00  0.00  0.00  0.14  0.00
  YS02001644YS02001647    1.00   0.00  0.05  0.00  0.95  0.00  0.00  0.00  0.00  0.00
  YS02001745YS02001748    1.00   0.00  0.00  0.00  0.92  0.00  0.00  0.08  0.03  0.00
  YS02001748YS02001751    1.00   0.00  0.00  0.00  0.97  0.03  0.00  0.00  0.14  0.00
  YS02001751YS02001754    1.00   0.00  0.00  0.00  0.94  0.00  0.00  0.06  0.01  0.00
  YS02001754YS02001757    1.00   0.00  0.00  0.00  1.00  0.00  0.00  0.00  0.16  0.00
  YS02001882YS02001884    1.00   0.04  0.00  0.00  0.96  0.00  0.00  0.00  0.00  0.00
  YS02001884YS02001887    1.00   0.02  0.01  0.00  0.96  0.00  0.00  0.00  0.00  0.00
  YS02001890YS02001895    1.00   0.00  0.04  0.00  0.95  0.00  0.00  0.00  0.00  0.00
  YS02001895YS02001898    1.00   0.05  0.00  0.00  0.95  0.00  0.01  0.00  0.00  0.00
  YS02001898YS02001901    1.00   0.05  0.00  0.00  0.95  0.00  0.00  0.00  0.01  0.00
  YS02001901YS02001904    1.00   0.05  0.00  0.00  0.95  0.00  0.00  0.00  0.00  0.00
  YS02001904YS02001907    1.00   0.00  0.05  0.00  0.95  0.00  0.00  0.00  0.00  0.00
  YS02001887YS02001890    1.00   0.00  0.00  0.00  0.99  0.00  0.01  0.00  0.00  0.00
  YS02001652YS02001649    1.00   0.00  0.00  0.00  1.00  0.00  0.00  0.00  0.15  0.00
  YS02001655YS02001652    1.00   0.00  0.00  0.00  0.94  0.00  0.00  0.06  0.02  0.00
  YS02001658YS02001655    1.00   0.00  0.04  0.00  0.93  0.03  0.00  0.00  0.02  0.00
  YS02001661YS02001658    1.00   0.04  0.00  0.00  0.91  0.04  0.00  0.00  0.03  0.00
  YS02001664YS02001661    1.00   0.04  0.00  0.00  0.91  0.05  0.00  0.00  0.16  0.00
  YSB1154YSB6556          1.00   0.04  0.00  0.00  0.96  0.00  0.00  0.00  0.01  0.00
  YSB1174YSB1171          1.00   0.02  0.01  0.00  0.97  0.00  0.00  0.00  0.00  0.00
  YSB1171HS02004479       1.00   0.01  0.00  0.00  0.98  0.00  0.00  0.00  0.10  0.00
  HS02004881HS02006253    1.00   0.02  0.00  0.00  0.42  0.02  0.00  0.53  0.26  0.00
  YS02001793JiankangQianchi    1.00   0.00  0.00  0.00  0.59  0.41  0.00  0.00  0.41  0.00
  YS02001757CaochengTiaoxuchi    1.00   0.00  0.07  0.00  0.93  0.00  0.00  0.00  0.00  0.00
  WSF200WS02003060        1.00   0.00  0.02  0.00  0.98  0.01  0.00  0.00  0.58  0.00
  1                       1.00   0.00  0.00  0.00  0.00  1.00  0.00  0.00  0.54  0.00
  
  
  *************************
  Conduit Surcharge Summary
  *************************
  
  ----------------------------------------------------------------------------
                                                           Hours        Hours 
                         --------- Hours Full --------   Above Full   Capacity
  Conduit                Both Ends  Upstream  Dnstream   Normal Flow   Limited
  ----------------------------------------------------------------------------
  WS02006229WS02006228        1.94      2.06      1.94      3.41         1.94
  WS02006256WS02006235        5.27      5.28      6.87      4.05         0.01
  WS02006253WS02006251        0.34      0.34      0.38      0.01         0.02
  WS02006252WS02006251        0.46      0.46      0.65      0.60         0.01
  WS02006251WS02006249        0.34      0.35      0.37      0.37         0.19
  WS02006249WS02006248        0.33      0.33      0.37      1.44         0.01
  WS02006248WS02006247        0.36      0.36      0.41      0.01         0.01
  WS02006247WS02006245        0.39      0.43      0.39      2.06         0.39
  WS02006245WS02006243        0.40      0.41      0.42      0.15         0.07
  WS02006243WS02006242        0.45      0.45      0.58      0.01         0.01
  WS02006242WS02006240        0.48      0.48      0.67      0.53         0.01
  WS02006240WS02006239        0.48      0.50      0.53      0.30         0.13
  WS02006239WS02006238        0.77      0.81      0.87      0.31         0.18
  WS02006238WS02006235        0.84      0.84      1.00      0.01         0.01
  WS02006235WS02006234        0.59      0.59      0.80      5.04         0.01
  WS02006234WS02006232        0.70      0.70      1.51      0.20         0.21
  WS02006232WS02006231        0.32      0.32      1.51      0.27         0.01
  WS02006231WS02006230        0.17      0.17      0.34      5.24         0.01
  WS02006230WS02006229        2.77      3.07      2.77      5.78         2.77
  WS02006228WS02006109        2.02      2.38      2.02      4.33         2.02
  WS02006112WS02006115        0.01      0.01      0.62      0.01         0.01
  WS02006111WS02006112        0.01      0.01      3.48      0.01         0.01
  WS02006110WS02006113        0.01      0.01      2.15      0.01         0.01
  WS02006109WS02006110        0.21      0.21      2.38      0.25         0.01
  WS02004405WS02004406        0.01      0.01      0.01      0.45         0.01
  WS02004404WS02004405        0.01      0.01      0.01      5.78         0.01
  WS02003072WS02003073        0.01      0.01      0.01      5.87         0.01
  YS02001759YS02001757        6.16      6.16      6.20      0.01         0.01
  YS02001762YS02001759        6.15      6.15      6.16      0.01         0.01
  YS02001765YS02001762        6.12      6.12      6.15      0.01         0.01
  YS02001770YS02001767        6.11      6.11      6.11      0.01         0.71
  YS02001774YS02001770        6.10      6.10      6.13      0.01         0.01
  YS02001779YS02001774        5.94      5.94      6.13      0.01         0.01
  YS02001649YS02001757        6.15      6.15      6.20      0.01         0.01
  YS02001767YS02001765        6.11      6.11      6.12      0.01         0.01
  YS02006561YS02001783        0.01      0.01      0.31      0.01         0.01
  YS02001783YS02001784        0.31      0.31      0.35      0.01         0.06
  YS02001784YS02001785        0.30      0.35      0.30      1.92         0.30
  YS02001788YS02001790        0.26      0.26      1.19      0.01         0.01
  YS02001790YS02001791        1.19      1.19      1.27      0.01         0.01
  YS02001791YS02001793        1.27      1.27      1.85      0.01         0.01
  YS02001910YS02001907        0.01      0.01      1.30      0.01         0.01
  YS02001786YS02001788        0.26      0.30      0.27      1.51         0.26
  YS02001629YS02163301        6.10      6.10      6.10      0.01         0.01
  YS02001619YS02001622        5.75      5.75      5.79      0.01         0.01
  YS02001622YS02001625        5.79      5.79      6.05      0.01         0.01
  YS02001625YS02001629        5.74      5.74      6.05      0.01         0.01
  YS02163301YS02001633        6.10      6.10      6.12      0.01         0.01
  YS02163601YS02164001        6.12      6.12      6.14      0.01         0.01
  YS02164001YS02001641        6.12      6.12      6.13      0.01         0.01
  YS02001641YS02001644        6.13      6.13      6.13      0.35         1.13
  YS02001647YS02001649        6.01      6.01      6.15      0.01         0.01
  YS02006553YS02006556        0.01      0.01      1.41      0.01         0.01
  YS02006556YS02006558        0.78      0.78      1.48      0.01         0.01
  YS02001907YS02006553        1.92      1.92      2.10      0.01         0.01
  YS02006558YS02006561        0.01      0.01      0.01      1.74         0.01
  YS02001633YS02163601        6.12      6.12      6.14      0.01         0.01
  YS02001644YS02001647        6.01      6.01      6.13      0.01         0.01
  YS02001745YS02001748        0.01      0.01      5.48      0.01         0.01
  YS02001748YS02001751        5.55      5.55      5.73      0.01         0.01
  YS02001751YS02001754        5.73      5.73      5.95      0.01         0.01
  YS02001754YS02001757        6.00      6.00      6.20      0.01         0.01
  YS02001904YS02001907        0.01      0.01      1.42      0.01         0.01
  YS02001652YS02001649        6.04      6.04      6.15      0.01         0.01
  YS02001655YS02001652        5.80      5.80      5.98      0.01         0.01
  YS02001658YS02001655        5.50      5.50      5.80      0.01         0.01
  YS02001661YS02001658        0.07      0.07      5.50      0.01         0.01
  YS02001664YS02001661        0.01      0.01      0.54      0.01         0.01
  HS02004881HS02006253        0.01      0.01      0.16      0.01         0.01
  YS02001793JiankangQianchi        1.69      1.69      4.21      0.01         0.01
  YS02001757CaochengTiaoxuchi        5.44      5.44      6.20      0.01         0.01
  
  
  ***************
  Pumping Summary
  ***************
  
  ---------------------------------------------------------------------------------------------------------
                                                  Min       Avg       Max     Total     Power    % Time Off
                        Percent   Number of      Flow      Flow      Flow    Volume     Usage    Pump Curve
  Pump                 Utilized   Start-Ups       LPS       LPS       LPS  10^6 ltr     Kw-hr    Low   High
  ---------------------------------------------------------------------------------------------------------
  CC-Pump-1               42.55           4      0.00    133.52    200.00     1.500      1.19    0.0    0.0
  CC-Pump-2               14.89           3      0.00    122.86    200.00     0.540      0.65    0.0    0.0
  JK-Pump-1               57.46           5      0.00    187.32    300.00     2.915     46.18    0.0    0.0
  JK-Pump-2               51.07           6      0.00    320.17    683.00     4.376     70.14    0.0   95.7
  XR-Pump-1               97.87           2      0.00     94.42     95.00     2.565     30.63    0.0    0.0
  XR-Pump-2               97.87           3      0.00     92.87     95.00     2.508     29.48    0.0    0.0
  XR-Pump-3               97.87           3      0.00     92.87     95.00     2.508     29.48    0.0    0.0
  XR-Pump-4               97.87           3      0.00     92.87     95.00     2.508     29.48    0.0    0.0
  
  
  ***************************
  Link Pollutant Load Summary
  ***************************
  
  ------------------------------------------------------------------------------------------
                                 COD            SS            TN            TP         NH4-N
  Link                            kg            kg            kg            kg            kg
  ------------------------------------------------------------------------------------------
  WS02003066WSF200           525.981       943.782        15.982         1.500         8.691
  WS02006287WS02006284       192.701       348.309         7.867         0.834         4.504
  WS02006284WS02006280       193.200       349.107         7.915         0.840         4.534
  WS02006280WS02006229       193.173       349.060         7.913         0.840         4.533
  WS02006229WS02006228       532.173       955.131        15.693         1.448         8.476
  WS02006256WS02006235       165.150       293.607         3.827         0.304         1.956
  WS02006253WS02006251        36.145        68.043         0.839         0.064         0.421
  WS02006252WS02006251       164.572       291.724         3.731         0.287         1.876
  WS02006251WS02006249       192.260       344.844         4.392         0.339         2.210
  WS02006249WS02006248       187.661       336.656         4.284         0.330         2.154
  WS02006248WS02006247       187.245       335.958         4.277         0.330         2.151
  WS02006247WS02006245       186.429       334.534         4.256         0.328         2.141
  WS02006245WS02006243       185.569       333.094         4.232         0.326         2.128
  WS02006243WS02006242       185.853       333.683         4.239         0.327         2.132
  WS02006242WS02006240       186.881       335.498         4.261         0.328         2.143
  WS02006240WS02006239       188.656       338.662         4.300         0.331         2.162
  WS02006239WS02006238       191.496       343.534         4.373         0.337         2.201
  WS02006238WS02006235       193.059       345.983         4.419         0.341         2.226
  WS02006235WS02006234       344.439       615.641         7.910         0.618         4.009
  WS02006234WS02006232       343.591       614.148         7.894         0.617         4.001
  WS02006232WS02006231       342.474       612.171         7.867         0.615         3.988
  WS02006231WS02006230       341.552       610.584         7.847         0.614         3.978
  WS02006230WS02006229       340.884       609.418         7.841         0.614         3.977
  WS02006228WS02006109       530.813       952.750        15.657         1.445         8.456
  WS02006116WS02004401       535.981       961.168        16.289         1.528         8.857
  WS02006115WS02006116       537.355       963.557        16.330         1.532         8.879
  WS02006113WS02006111       535.365       959.482        16.342         1.534         8.894
  WS02006112WS02006115       538.950       966.332        16.386         1.537         8.911
  WS02006111WS02006112       534.589       958.122        16.320         1.532         8.882
  WS02006110WS02006113       536.266       961.051        16.374         1.537         8.912
  WS02006109WS02006110       537.998       964.049        16.442         1.545         8.951
  WS02004411WS02004412       529.058       949.074        16.112         1.513         8.765
  WS02004401WS02004402       534.656       958.871        16.241         1.523         8.830
  WS02004413WS02003067       526.496       944.666        15.999         1.501         8.700
  WS02004412WS02004413       528.002       947.250        16.071         1.509         8.742
  WS02004410WS02004411       529.861       950.457        16.141         1.516         8.782
  WS02004409WS02004410       530.714       951.925        16.175         1.520         8.801
  WS02004407WS02004409       531.293       952.920        16.194         1.521         8.812
  WS02004406WS02004407       531.320       952.956        16.191         1.521         8.809
  WS02004405WS02004406       532.694       955.299        16.259         1.528         8.849
  WS02004404WS02004405       533.173       956.165        16.251         1.527         8.842
  WS02004403WS02004404       532.650       955.404        16.166         1.515         8.788
  WS02004402WS02004403       533.620       957.079        16.205         1.520         8.811
  WS02004139WS02001211      1524.288      2475.003       133.653        16.485        82.881
  WS02004138WS02004139      1531.769      2487.110       134.314        16.567        83.292
  WS02003067WS02003066       526.162       944.089        15.991         1.500         8.696
  WS02001213WS02003059      1555.149      2524.078       136.741        16.874        84.817
  WS02001212WS02001213      1565.509      2540.815       137.670        16.989        85.395
  WS02001211WS02001212      1567.741      2544.411       137.873        17.014        85.521
  WS02003072WS02003073      2179.445      3624.676       162.381        19.584        99.554
  WS02003069WS02003072      2184.969      3633.671       162.854        19.642        99.847
  WS02003060WS02003069      2188.122      3638.861       163.092        19.671        99.993
  WS02003059WS02003060      1551.472      2518.104       136.426        16.835        84.622
  HS02004901HS02004770         6.588        12.288         0.126         0.009         0.059
  HS02004876HS02004881        24.755        47.127         0.595         0.046         0.299
  HS02004870HS02004876        18.723        35.515         0.488         0.039         0.249
  HS02004842HS02004848         3.653         6.695         0.078         0.005         0.036
  HS02004837HS02004842         8.306        14.098         0.549         0.065         0.332
  HS02004830HS02004837        58.059        97.474         4.414         0.536         2.716
  HS02004824HS02004830        58.810        98.677         4.486         0.545         2.761
  HS02004817HS02004824        73.073       126.110         4.784         0.563         2.906
  HS02004770HS02004777        25.089        47.241         0.530         0.035         0.242
  HS02004799HS02004480        88.833       161.665         2.850         0.275         1.542
  HS02004792HS02004799        80.827       145.803         2.750         0.272         1.503
  HS02004788HS02004792        48.379        87.188         1.985         0.207         1.121
  HS02004785HS02004788        26.491        49.474         0.676         0.054         0.335
  HS02004777HS02004785        25.818        48.394         0.615         0.046         0.296
  HS02004480HS02004478       111.507       205.226         3.196         0.298         1.699
  HS02004479HS02004480        26.265        49.347         0.653         0.060         0.347
  HS02004862HS02004870        13.886        25.845         0.393         0.033         0.203
  HS02004848HS02004852         4.921         9.099         0.104         0.007         0.048
  HS02004856HS02004862         8.937        17.021         0.182         0.012         0.085
  HS02004852HS02004856         4.935         9.123         0.104         0.007         0.048
  HS02004802HS02004478        82.220       144.773         4.740         0.545         2.846
  HS02004478WS02006287       192.895       348.622         7.886         0.837         4.516
  HS02004817HS02004807        71.696       123.938         4.641         0.545         2.816
  HS02004807HS02004802        82.361       144.981         4.771         0.549         2.866
  YS02001759YS02001757       242.436       430.389         4.990         0.345         2.448
  YS02001762YS02001759       118.551       211.711         2.628         0.186         1.311
  YS02001765YS02001762       118.637       212.206         2.655         0.189         1.328
  YS02001770YS02001767       117.468       211.149         2.445         0.159         1.190
  YS02001774YS02001770        74.875       136.480         1.524         0.099         0.739
  YS02001779YS02001774        74.136       135.065         1.607         0.112         0.798
  YS02001649YS02001757       313.245       546.015         6.449         0.448         3.107
  YS02001767YS02001765       119.156       213.425         2.691         0.193         1.349
  YS02006561YS02001783       621.382      1101.587        13.993         1.081         7.085
  YS02001783YS02001784       621.352      1101.567        13.990         1.081         7.083
  YS02001784YS02001785       628.756      1113.445        14.704         1.170         7.529
  YS02001788YS02001790       629.426      1114.551        14.777         1.180         7.575
  YS02001790YS02001791       630.544      1116.371        14.878         1.192         7.639
  YS02001791YS02001793       630.505      1116.317        14.874         1.192         7.636
  YS02001910YS02001907       208.134       363.145         5.872         0.488         3.114
  YS02001786YS02001788       629.009      1113.869        14.733         1.174         7.548
  YS02001915YS02001910       208.180       363.189         5.835         0.483         3.089
  YS02001918YS02001915       100.505       167.500         3.544         0.354         1.995
  YS02001923YS02001920        80.618       135.746         1.599         0.111         0.778
  YS02001926YS02001923        80.280       135.211         1.560         0.106         0.754
  YS02001929YS02001926        80.048       134.829         1.529         0.102         0.734
  YS02001920YS02001918       100.515       167.582         3.517         0.351         1.977
  YS02001629YS02163301        86.571       150.129         1.837         0.117         0.854
  YS02001619YS02001622        89.276       154.312         1.903         0.121         0.883
  YS02001622YS02001625        88.265       152.758         1.878         0.119         0.872
  YS02001625YS02001629        87.111       151.032         1.850         0.118         0.859
  YS02163301YS02001633        87.289       151.388         1.848         0.118         0.860
  YS02163601YS02164001       241.416       416.656         4.893         0.342         2.338
  YS02164001YS02001641       241.271       416.423         4.880         0.340         2.330
  YS02001641YS02001644       242.003       417.647         4.887         0.341         2.333
  YS02001647YS02001649       296.851       516.090         6.081         0.421         2.927
  YS02006553YS02006556       448.673       792.863        10.372         0.825         5.314
  YS02006556YS02006558       448.879       793.251        10.338         0.819         5.290
  YSB6556YSB1171              14.808        27.960         0.317         0.027         0.163
  YS02001907YS02006553       448.627       792.780        10.401         0.829         5.334
  YS02006558YS02006561       621.425      1101.652        13.994         1.081         7.085
  YS02001633YS02163601       241.974       417.504         4.870         0.337         2.320
  YS02001644YS02001647       301.430       524.001         6.141         0.425         2.953
  YS02001745YS02001748       134.918       237.940         3.584         0.281         1.866
  YS02001748YS02001751       134.012       235.638         3.827         0.317         2.031
  YS02001751YS02001754       133.114       234.202         3.808         0.316         2.022
  YS02001754YS02001757       133.915       235.435         3.969         0.338         2.127
  YS02001882YS02001884         2.571         4.417         0.051         0.004         0.025
  YS02001884YS02001887         6.244        10.916         0.121         0.009         0.060
  YS02001890YS02001895       241.530       431.149         4.548         0.341         2.228
  YS02001895YS02001898       241.361       430.908         4.541         0.341         2.225
  YS02001898YS02001901       241.269       430.783         4.538         0.341         2.223
  YS02001901YS02001904       241.205       430.718         4.549         0.342         2.230
  YS02001904YS02001907       241.559       431.311         4.604         0.349         2.265
  YS02001887YS02001890       242.337       432.387         4.601         0.348         2.261
  YS02001652YS02001649        87.367       153.263         1.864         0.134         0.874
  YS02001655YS02001652        87.940       154.191         1.880         0.135         0.882
  YS02001658YS02001655        87.484       153.462         1.795         0.124         0.826
  YS02001661YS02001658        88.914       155.915         1.826         0.126         0.841
  YS02001664YS02001661       104.639       182.552         2.164         0.149         0.995
  YSB1154YSB6556              14.382        27.267         0.270         0.021         0.134
  YSB1174YSB1171               9.938        18.931         0.209         0.017         0.106
  YSB1171HS02004479           26.198        49.220         0.658         0.061         0.351
  HS02004881HS02006253        27.925        53.332         0.652         0.049         0.326
  YS02001793JiankangQianchi       631.982      1118.759        14.916         1.195         7.658
  YS02001757CaochengTiaoxuchi       463.079       815.545        10.511         0.800         5.273
  WSF200WS02003060           526.090       943.973        15.999         1.502         8.701
  1                         2184.553      3632.726       162.964        19.658        99.922
  CC-Pump-1                  120.446       213.420         2.725         0.209         1.369
  CC-Pump-2                   43.938        78.001         0.995         0.077         0.500
  JK-Pump-1                  173.165       309.684         3.918         0.307         1.992
  JK-Pump-2                  281.359       502.666         6.324         0.493         3.208
  XR-Pump-1                  390.856       634.471        34.320         4.234        21.285
  XR-Pump-2                  381.744       619.870        33.462         4.127        20.750
  XR-Pump-3                  381.744       619.870        33.462         4.127        20.750
  XR-Pump-4                  381.744       619.870        33.462         4.127        20.750
  

  Analysis begun on:  Sat Jul 10 15:17:10 2021
  Analysis ended on:  Sat Jul 10 15:17:13 2021
  Total elapsed time: 00:00:03