
  EPA STORM WATER MANAGEMENT MODEL - VERSION 5.1 (Build 5.3.0.dev0)
  --------------------------------------------------------------

  WARNING 04: minimum elevation drop used for Conduit WS02004404WS02004405
  WARNING 03: negative offset ignored for Link YS02001904YS02001907
  
  *********************************************************
  NOTE: The summary statistics displayed in this report are
  based on results found at every computational time step,  
  not just on results from each reporting time step.
  *********************************************************
  
  ****************
  Analysis Options
  ****************
  Flow Units ............... LPS
  Process Models:
    Rainfall/Runoff ........ YES
    RDII ................... NO
    Snowmelt ............... NO
    Groundwater ............ NO
    Flow Routing ........... YES
    Ponding Allowed ........ NO
    Water Quality .......... YES
  Infiltration Method ...... HORTON
  Flow Routing Method ...... DYNWAVE
  Surcharge Method ......... EXTRAN
  Starting Date ............ 08/28/2015 08:00:00
  Ending Date .............. 08/28/2015 15:50:00
  Antecedent Dry Days ...... 8.0
  Report Time Step ......... 00:01:00
  Wet Time Step ............ 00:01:00
  Dry Time Step ............ 00:01:00
  Routing Time Step ........ 5.00 sec
  Variable Time Step ....... YES
  Maximum Trials ........... 8
  Number of Threads ........ 4
  Head Tolerance ........... 0.001500 m
  
  
  **************************        Volume         Depth
  Runoff Quantity Continuity     hectare-m            mm
  **************************     ---------       -------
  Total Precipitation ......         1.959         4.290
  Evaporation Loss .........         0.000         0.000
  Infiltration Loss ........         0.456         0.999
  Surface Runoff ...........         1.067         2.337
  Final Storage ............         0.436         0.955
  Continuity Error (%) .....        -0.023
  
  
  **************************           COD            SS            TN            TP         NH4-N
  Runoff Quality Continuity             kg            kg            kg            kg            kg
  **************************    ----------    ----------    ----------    ----------    ----------
  Initial Buildup ..........     41378.656     70582.865      1804.177       168.684      1032.807
  Surface Buildup ..........        13.914        16.024         3.143         0.291         1.864
  Wet Deposition ...........         0.000         0.000         0.000         0.000         0.000
  Sweeping Removal .........         0.000         0.000         0.000         0.000         0.000
  Infiltration Loss ........        17.529        29.690         0.360         0.024         0.168
  BMP Removal ..............         0.000         0.000         0.000         0.000         0.000
  Surface Runoff ...........       546.583       901.156        11.363         0.724         5.341
  Remaining Buildup ........     40828.286     69667.764      1795.594       168.227      1029.161
  Continuity Error (%) .....         0.000         0.000         0.000         0.000         0.000
  
  
  **************************        Volume        Volume
  Flow Routing Continuity        hectare-m      10^6 ltr
  **************************     ---------     ---------
  Dry Weather Inflow .......         0.616         6.165
  Wet Weather Inflow .......         1.067        10.667
  Groundwater Inflow .......         0.000         0.000
  RDII Inflow ..............         0.000         0.000
  External Inflow ..........         0.102         1.024
  External Outflow .........         1.094        10.936
  Flooding Loss ............         0.133         1.328
  Evaporation Loss .........         0.000         0.000
  Exfiltration Loss ........         0.000         0.000
  Initial Stored Volume ....         0.076         0.761
  Final Stored Volume ......         0.631         6.310
  Continuity Error (%) .....         0.224
  
  
  **************************           COD            SS            TN            TP         NH4-N
  Quality Routing Continuity            kg            kg            kg            kg            kg
  **************************    ----------    ----------    ----------    ----------    ----------
  Dry Weather Inflow .......      1541.201      2465.922       147.955        18.494        92.472
  Wet Weather Inflow .......       546.420       900.913        11.359         0.724         5.339
  Groundwater Inflow .......         0.000         0.000         0.000         0.000         0.000
  RDII Inflow ..............         0.000         0.000         0.000         0.000         0.000
  External Inflow ..........       183.418       293.469        17.608         2.201        11.005
  External Outflow .........      1673.689      2702.370       143.769        17.696        89.138
  Flooding Loss ............        73.108       115.925         2.691         0.261         1.496
  Exfiltration Loss ........         0.000         0.000         0.000         0.000         0.000
  Mass Reacted .............         0.000         0.000         0.000         0.000         0.000
  Initial Stored Mass ......         0.000         0.000         0.000         0.000         0.000
  Final Stored Mass ........       516.543       830.367        30.034         3.416        17.931
  Continuity Error (%) .....         0.339         0.318         0.243         0.216         0.231
  
  
  *************************
  Highest Continuity Errors
  *************************
  Node YS02001774 (35.44%)
  Node HS02004842 (29.47%)
  Node YS02001884 (23.89%)
  Node YSB1171 (7.44%)
  Node YS02001625 (6.51%)
  
  
  ***************************
  Time-Step Critical Elements
  ***************************
  Link WS02006238WS02006235 (43.11%)
  Link WS02006280WS02006229 (23.03%)
  Link WS02003066WSF200 (9.93%)
  Link YS02001791YS02001793 (1.65%)
  Link WS02006229WS02006228 (1.56%)
  
  
  ********************************
  Highest Flow Instability Indexes
  ********************************
  Link WS02006113WS02006111 (52)
  Link WS02006256WS02006235 (13)
  Link YS02164001YS02001641 (11)
  Link WS02004404WS02004405 (11)
  Link YS02001629YS02163301 (10)
  
  
  *************************
  Routing Time Step Summary
  *************************
  Minimum Time Step           :     0.50 sec
  Average Time Step           :     3.27 sec
  Maximum Time Step           :     5.00 sec
  Percent in Steady State     :     0.00
  Average Iterations per Step :     2.61
  Percent Not Converging      :     4.52
  
  
  ***************************
  Subcatchment Runoff Summary
  ***************************
  
  ------------------------------------------------------------------------------------------------------------------------------
                            Total      Total      Total      Total     Imperv       Perv      Total       Total     Peak  Runoff
                           Precip      Runon       Evap      Infil     Runoff     Runoff     Runoff      Runoff   Runoff   Coeff
  Subcatchment                 mm         mm         mm         mm         mm         mm         mm    10^6 ltr      LPS
  ------------------------------------------------------------------------------------------------------------------------------
  sub0                       4.29       0.00       0.00       0.30       3.95       0.00       3.95        0.00     1.39   0.920
  sub1                       4.29       0.00       0.00       0.47       3.73       0.00       3.73        0.02     7.51   0.870
  sub2                       4.29       0.00       0.00       1.59       2.63       0.00       2.63        0.02     6.61   0.612
  sub3                       4.29       0.00       0.00       1.59       2.59       0.00       2.59        0.06    13.46   0.604
  sub4                       4.29       0.00       0.00       0.47       3.60       0.00       3.60        0.08    14.90   0.839
  sub5                       4.29       0.00       0.00       0.30       3.90       0.00       3.90        0.04    13.35   0.909
  sub7                       4.29       0.00       0.00       0.39       3.84       0.00       3.84        0.01     4.69   0.896
  sub8                       4.29       0.00       0.00       0.39       3.84       0.00       3.84        0.02     8.31   0.894
  sub9                       4.29       0.00       0.00       0.39       3.83       0.00       3.83        0.02     6.16   0.894
  sub10                      4.29       0.00       0.00       0.34       3.86       0.00       3.86        0.04    13.34   0.901
  sub11                      4.29       0.00       0.00       0.34       3.88       0.00       3.88        0.05    15.62   0.905
  sub12                      4.29       0.00       0.00       0.56       3.69       0.00       3.69        0.03    13.04   0.859
  sub14                      4.29       0.00       0.00       0.39       3.83       0.00       3.83        0.04    12.04   0.893
  sub15                      4.29       0.00       0.00       1.29       2.94       0.00       2.94        0.05    16.35   0.686
  sub16                      4.29       0.00       0.00       1.42       2.84       0.00       2.84        0.03    11.52   0.661
  sub17                      4.29       0.00       0.00       1.37       2.88       0.00       2.88        0.02     9.34   0.670
  sub22                      4.29       0.00       0.00       1.84       2.41       0.00       2.41        0.15    53.41   0.561
  sub23                      4.29       0.00       0.00       1.59       2.66       0.00       2.66        0.13    45.41   0.620
  sub60                      4.29       0.00       0.00       0.51       2.55       0.00       2.55        0.77    67.93   0.595
  sub61                      4.29       0.00       0.00       0.73       2.74       0.00       2.74        0.85    87.60   0.640
  sub62                      4.29       0.00       0.00       0.34       2.94       0.00       2.94        0.90    88.79   0.685
  sub63                      4.29       0.00       0.00       1.24       2.45       0.00       2.45        0.74    82.69   0.571
  sub64                      4.29       0.00       0.00       0.64       2.44       0.00       2.44        0.74    64.40   0.569
  sub65                      4.29       0.00       0.00       0.56       2.47       0.00       2.47        0.76    65.23   0.576
  sub66                      4.29       0.00       0.00       1.24       2.13       0.00       2.13        0.65    59.52   0.497
  sub67                      4.29       0.00       0.00       0.34       3.24       0.00       3.24        1.00   117.02   0.756
  sub68                      4.29       0.00       0.00       0.60       2.92       0.00       2.92        0.90    97.55   0.681
  sub69                      4.29       0.00       0.00       0.64       3.17       0.00       3.17        0.74    99.90   0.738
  sub70                      4.29       3.23       0.00       2.56       3.86       0.00       3.86        0.88    75.49   0.513
  sub71                      4.29       0.00       0.00       0.34       2.81       0.00       2.81        0.66    61.36   0.654
  sub72                      4.29       0.00       0.00       0.30       1.96       0.00       1.96        0.40    28.35   0.457
  1                          4.29       3.76       0.00       1.30       3.91       0.46       4.37        1.03    70.57   0.543
  2                          4.29       0.00       0.00       2.87       0.96       0.14       1.09        0.44    60.95   0.255
  
  
  ****************************
  Subcatchment Washoff Summary
  ****************************
  
  ------------------------------------------------------------------------------------------
                                 COD            SS            TN            TP         NH4-N
  Subcatchment                    kg            kg            kg            kg            kg
  ------------------------------------------------------------------------------------------
  sub0                         0.587         1.078         0.010         0.001         0.005
  sub1                         2.317         4.270         0.044         0.003         0.021
  sub2                         1.314         2.325         0.030         0.002         0.014
  sub3                         3.127         5.440         0.071         0.005         0.032
  sub4                         4.947         8.975         0.104         0.006         0.050
  sub5                         5.305         9.656         0.093         0.007         0.045
  sub7                         1.256         2.374         0.024         0.002         0.011
  sub8                         1.896         3.647         0.039         0.002         0.019
  sub9                         1.596         3.028         0.032         0.002         0.015
  sub10                        4.441         8.203         0.081         0.006         0.039
  sub11                        4.475         8.407         0.084         0.006         0.040
  sub12                        3.781         7.012         0.068         0.005         0.032
  sub14                        3.372         6.336         0.065         0.004         0.031
  sub15                        3.904         6.978         0.078         0.005         0.036
  sub16                        2.527         4.542         0.049         0.004         0.023
  sub17                        2.301         4.093         0.043         0.003         0.020
  sub22                       11.548        20.227         0.228         0.017         0.105
  sub23                        7.213        13.133         0.164         0.010         0.074
  sub60                       34.884        56.853         0.767         0.043         0.365
  sub61                       44.727        72.770         0.888         0.057         0.425
  sub62                       47.318        78.405         1.005         0.058         0.479
  sub63                       33.885        54.569         0.757         0.050         0.343
  sub64                       40.707        63.804         0.799         0.055         0.377
  sub65                       41.744        65.716         0.827         0.055         0.392
  sub66                       25.119        39.904         0.584         0.036         0.268
  sub67                       71.428       117.679         1.318         0.092         0.633
  sub68                       50.778        83.724         1.047         0.066         0.495
  sub69                       48.498        81.473         0.961         0.063         0.455
  sub70                       71.127       119.138         1.544         0.101         0.708
  sub71                       31.353        52.338         0.716         0.038         0.341
  sub72                       19.163        29.409         0.388         0.025         0.186
  1                           33.913        57.263         0.768         0.050         0.346
  2                            5.658         8.996         0.194         0.011         0.080
  ------------------------------------------------------------------------------------------
  System                     666.207      1101.767        13.868         0.888         6.504
  
  
  ******************
  Node Depth Summary
  ******************
  
  ---------------------------------------------------------------------------------
                                 Average  Maximum  Maximum  Time of Max    Reported
                                   Depth    Depth      HGL   Occurrence   Max Depth
  Node                 Type       Meters   Meters   Meters  days hr:min      Meters
  ---------------------------------------------------------------------------------
  WS02001211           JUNCTION     0.66     0.71     5.55     0  02:43        0.71
  WS02001212           JUNCTION     0.38     0.43     5.49     0  02:42        0.43
  WS02001213           JUNCTION     0.58     0.68     5.44     0  02:41        0.68
  WS02003069           JUNCTION     0.36     0.50     5.09     0  02:40        0.50
  WS02003072           JUNCTION     0.43     0.57     4.94     0  02:41        0.57
  WS02003073           JUNCTION     0.25     0.35     4.41     0  02:42        0.35
  WS02003060           JUNCTION     0.33     0.45     5.38     0  02:40        0.45
  WS02003066           JUNCTION     0.15     0.27     5.83     0  02:38        0.27
  WS02003059           JUNCTION     0.64     0.73     5.42     0  02:41        0.73
  WS02003067           JUNCTION     0.39     0.66     5.98     0  02:37        0.66
  WS02004401           JUNCTION     0.48     0.77     6.77     0  02:33        0.77
  WS02004402           JUNCTION     0.51     0.80     6.76     0  02:33        0.80
  WS02004403           JUNCTION     0.53     0.82     6.75     0  02:33        0.82
  WS02004404           JUNCTION     0.60     0.89     6.74     0  02:34        0.89
  WS02004406           JUNCTION     0.62     0.89     6.72     0  02:34        0.89
  WS02004409           JUNCTION     0.30     0.59     6.36     0  02:36        0.59
  WS02004410           JUNCTION     0.32     0.61     6.33     0  02:37        0.61
  WS02004411           JUNCTION     0.34     0.62     6.30     0  02:37        0.62
  WS02004412           JUNCTION     0.35     0.63     6.27     0  02:38        0.63
  WS02004413           JUNCTION     0.48     0.80     6.27     0  02:37        0.80
  WS02004405           JUNCTION     0.60     0.89     6.74     0  02:34        0.89
  WS02006109           JUNCTION     0.56     0.85     7.47     0  02:27        0.85
  WS02006110           JUNCTION     0.58     0.84     7.42     0  02:29        0.84
  WS02006111           JUNCTION     0.15     0.26     6.96     0  02:29        0.26
  WS02006112           JUNCTION     0.63     0.95     6.83     0  02:33        0.95
  WS02006113           JUNCTION     0.22     0.40     7.29     0  02:32        0.40
  WS02006115           JUNCTION     0.37     0.66     6.80     0  02:33        0.66
  WS02006116           JUNCTION     0.45     0.74     6.78     0  02:33        0.74
  WS02006230           JUNCTION     0.48     0.84     7.58     0  02:29        0.84
  WS02006231           JUNCTION     0.26     0.52     7.64     0  02:32        0.52
  WS02006232           JUNCTION     0.36     0.65     7.69     0  02:32        0.65
  WS02006234           JUNCTION     0.28     0.56     7.71     0  02:32        0.56
  WS02006235           JUNCTION     0.30     0.58     7.74     0  02:33        0.58
  WS02006238           JUNCTION     0.32     0.60     7.74     0  02:33        0.60
  WS02006240           JUNCTION     0.21     0.45     7.74     0  02:32        0.45
  WS02006242           JUNCTION     0.24     0.48     7.75     0  02:33        0.48
  WS02006243           JUNCTION     0.13     0.33     7.75     0  02:33        0.33
  WS02006245           JUNCTION     0.11     0.26     7.75     0  02:32        0.26
  WS02006247           JUNCTION     0.11     0.25     7.75     0  02:32        0.25
  WS02006248           JUNCTION     0.06     0.17     7.75     0  02:33        0.17
  WS02006249           JUNCTION     0.08     0.19     7.79     0  02:14        0.19
  WS02006239           JUNCTION     0.26     0.54     7.74     0  02:32        0.54
  WS02006251           JUNCTION     0.05     0.16     7.83     0  02:14        0.16
  WS02006252           JUNCTION     0.00     0.00     8.24     0  00:00        0.00
  WS02006253           JUNCTION     0.09     0.22     7.87     0  02:13        0.22
  WS02006256           JUNCTION     1.22     2.35     9.28     0  02:16        2.35
  WS02004138           JUNCTION     0.16     0.17     7.42     0  04:13        0.17
  WS02004139           JUNCTION     0.61     0.65     5.56     0  02:43        0.65
  WS02004407           JUNCTION     0.14     0.26     6.58     0  02:34        0.26
  WS02006228           JUNCTION     0.54     0.87     7.52     0  02:27        0.87
  WS02006229           JUNCTION     0.51     0.85     7.55     0  02:27        0.85
  WS02006280           JUNCTION     0.05     0.14     8.42     0  02:13        0.14
  WS02006284           JUNCTION     0.34     0.48     8.88     0  02:13        0.48
  WS02006287           JUNCTION     0.08     0.21     9.17     0  02:13        0.21
  WSF200               JUNCTION     0.13     0.27     5.50     0  02:38        0.27
  HS02004901           JUNCTION     0.11     0.23    10.05     0  02:11        0.23
  HS02004881           JUNCTION     0.01     0.02     9.05     0  02:13        0.02
  HS02004876           JUNCTION     0.04     0.10     9.13     0  02:11        0.10
  HS02004870           JUNCTION     0.01     0.04     9.33     0  02:13        0.04
  HS02004862           JUNCTION     0.01     0.05     9.43     0  02:14        0.05
  HS02004856           JUNCTION     0.07     0.10     9.53     0  02:13        0.10
  HS02004852           JUNCTION     0.01     0.03     9.54     0  02:14        0.03
  HS02004848           JUNCTION     0.01     0.03     9.63     0  02:12        0.03
  HS02004842           JUNCTION     0.32     0.36     9.63     0  02:12        0.36
  HS02004837           JUNCTION     0.03     0.05     9.63     0  02:12        0.05
  HS02004830           JUNCTION     0.04     0.06     9.53     0  02:12        0.06
  HS02004824           JUNCTION     0.02     0.04     9.44     0  02:14        0.04
  HS02004817           JUNCTION     0.41     0.52     9.37     0  02:14        0.52
  HS02004807           JUNCTION     0.11     0.20     9.37     0  02:14        0.20
  HS02004802           JUNCTION     0.14     0.24     9.37     0  02:13        0.24
  HS02004799           JUNCTION     0.10     0.26     9.47     0  02:12        0.26
  HS02004792           JUNCTION     0.03     0.10     9.62     0  02:11        0.10
  HS02004788           JUNCTION     0.02     0.07     9.97     0  02:12        0.07
  HS02004785           JUNCTION     0.04     0.13    10.03     0  02:12        0.13
  HS02004777           JUNCTION     0.13     0.25    10.05     0  02:11        0.25
  HS02004770           JUNCTION     0.10     0.22    10.05     0  02:11        0.22
  HS02004480           JUNCTION     0.07     0.20     9.44     0  02:12        0.20
  HS02004479           JUNCTION     0.10     0.24     9.44     0  02:12        0.24
  HS02004478           JUNCTION     0.05     0.13     9.35     0  02:13        0.13
  YS02001745           JUNCTION     0.38     0.84     8.36     0  06:02        0.84
  YS02001748           JUNCTION     0.67     1.28     8.36     0  06:02        1.28
  YS02001751           JUNCTION     0.82     1.48     8.36     0  06:02        1.48
  YS02001754           JUNCTION     1.04     1.75     8.36     0  06:02        1.75
  YS02001762           JUNCTION     1.21     1.96     8.36     0  06:02        1.96
  YS02001765           JUNCTION     1.17     1.91     8.36     0  06:02        1.91
  YS02001767           JUNCTION     1.14     1.87     8.36     0  06:02        1.87
  YS02001770           JUNCTION     1.13     1.86     8.36     0  06:02        1.86
  YS02001774           JUNCTION     1.19     1.94     8.36     0  06:02        1.94
  YS02001779           JUNCTION     0.97     1.67     8.36     0  06:02        1.67
  YS02001882           JUNCTION     0.25     0.44     7.15     0  02:40        0.43
  YS02001884           JUNCTION     0.34     0.53     7.15     0  02:40        0.53
  YS02001759           JUNCTION     1.24     1.99     8.36     0  06:02        1.99
  YS02001887           JUNCTION     0.42     0.61     7.15     0  02:39        0.61
  YS02001890           JUNCTION     0.45     0.64     7.15     0  02:40        0.64
  YS02001898           JUNCTION     0.23     0.40     7.13     0  02:40        0.40
  YS02001901           JUNCTION     0.33     0.52     7.13     0  02:41        0.52
  YS02001904           JUNCTION     0.31     0.50     7.13     0  02:41        0.50
  YS02001907           JUNCTION     0.63     0.84     7.13     0  02:41        0.84
  YS02001910           JUNCTION     0.42     0.62     7.13     0  02:41        0.62
  YS02001915           JUNCTION     0.24     0.41     7.13     0  02:41        0.41
  YS02001918           JUNCTION     0.07     0.09     7.16     0  03:02        0.09
  YS02001619           JUNCTION     0.79     1.43     8.35     0  05:53        1.43
  YS02001629           JUNCTION     1.09     1.81     8.35     0  05:53        1.80
  YS02001641           JUNCTION     1.18     1.92     8.35     0  05:56        1.92
  YS02001644           JUNCTION     1.19     1.92     8.35     0  05:53        1.92
  YS02001652           JUNCTION     1.05     1.76     8.36     0  06:02        1.76
  YS02001655           JUNCTION     0.84     1.51     8.36     0  06:01        1.51
  YS02001920           JUNCTION     0.16     0.20     7.21     0  03:02        0.20
  YS02001923           JUNCTION     0.06     0.08     7.34     0  03:01        0.08
  YS02001926           JUNCTION     0.12     0.17     7.61     0  03:01        0.17
  YS02001929           JUNCTION     0.06     0.08     7.78     0  03:01        0.08
  YS02001658           JUNCTION     0.62     1.21     8.36     0  06:01        1.21
  YS02001661           JUNCTION     0.47     0.95     8.36     0  06:01        0.95
  YS02001664           JUNCTION     0.18     0.43     8.36     0  06:01        0.43
  YS02001622           JUNCTION     0.80     1.45     8.35     0  05:53        1.45
  YS02001633           JUNCTION     1.17     1.90     8.35     0  05:53        1.90
  YS02001649           JUNCTION     1.22     1.97     8.36     0  06:02        1.97
  YS02001757           JUNCTION     1.34     2.10     8.36     0  06:02        2.10
  YS02001895           JUNCTION     0.22     0.40     7.14     0  02:40        0.40
  YS02001625           JUNCTION     1.05     1.75     8.35     0  05:53        1.75
  YS02163301           JUNCTION     1.11     1.84     8.35     0  05:53        1.84
  YS02163601           JUNCTION     1.22     1.96     8.35     0  05:56        1.95
  YS02164001           JUNCTION     1.17     1.89     8.35     0  05:56        1.89
  YS02001647           JUNCTION     1.03     1.74     8.35     0  06:02        1.74
  YSB1154              JUNCTION     0.23     0.38     9.44     0  02:12        0.38
  YSB6556              JUNCTION     0.13     0.27     9.44     0  02:12        0.27
  YSB1174              JUNCTION     0.19     0.33     9.44     0  02:12        0.33
  YSB1171              JUNCTION     0.38     0.54     9.44     0  02:12        0.54
  YS02006553           JUNCTION     0.63     0.85     7.13     0  02:41        0.85
  YS02006561           JUNCTION     0.12     0.21     6.87     0  02:41        0.21
  YS02006556           JUNCTION     0.61     0.82     7.13     0  02:41        0.82
  YS02006558           JUNCTION     0.65     0.86     7.13     0  02:41        0.86
  YS02001783           JUNCTION     0.21     0.38     6.52     0  02:41        0.38
  YS02001784           JUNCTION     0.24     0.41     6.48     0  02:42        0.41
  YS02001786           JUNCTION     0.21     0.35     6.38     0  02:42        0.35
  YS02001788           JUNCTION     0.15     0.26     6.24     0  02:42        0.26
  YS02001790           JUNCTION     0.18     0.32     5.96     0  02:42        0.32
  YS02001791           JUNCTION     0.12     0.21     5.68     0  02:42        0.21
  YS02001793           JUNCTION     0.12     0.64     5.47     0  03:33        0.54
  WSC                  OUTFALL      0.25     0.35     1.02     0  02:42        0.35
  JK-storage           STORAGE      3.79     4.61     5.41     0  03:33        4.60
  CC-storage           STORAGE      0.68     1.37     8.37     0  06:01        1.37
  XR-storage           STORAGE      7.05     7.72     5.72     0  02:58        7.72
  
  
  *******************
  Node Inflow Summary
  *******************
  
  -------------------------------------------------------------------------------------------------
                                  Maximum  Maximum                  Lateral       Total        Flow
                                  Lateral    Total  Time of Max      Inflow      Inflow     Balance
                                   Inflow   Inflow   Occurrence      Volume      Volume       Error
  Node                 Type           LPS      LPS  days hr:min    10^6 ltr    10^6 ltr     Percent
  -------------------------------------------------------------------------------------------------
  WS02001211           JUNCTION      7.35   294.12     0  06:30       0.207        7.05       0.540
  WS02001212           JUNCTION      0.00   294.88     0  03:42           0        7.01       0.276
  WS02001213           JUNCTION      0.00   296.09     0  03:41           0        6.99       0.310
  WS02003069           JUNCTION      0.32   734.26     0  02:40     0.00902          11       0.201
  WS02003072           JUNCTION      0.00   734.22     0  02:41           0        10.9       0.262
  WS02003073           JUNCTION      1.82   736.03     0  02:41      0.0514          11       0.288
  WS02003060           JUNCTION     16.53   733.95     0  02:40       0.466          11       0.194
  WS02003066           JUNCTION      0.00   427.50     0  02:38           0        3.58       0.067
  WS02003059           JUNCTION      0.00   298.44     0  03:41           0        6.98       0.542
  WS02003067           JUNCTION      0.00   427.46     0  02:37           0        3.59       0.159
  WS02004401           JUNCTION      0.00   431.60     0  02:31           0        3.73       0.343
  WS02004402           JUNCTION      0.00   430.72     0  02:31           0        3.71       0.343
  WS02004403           JUNCTION      0.00   430.31     0  02:33           0         3.7       0.326
  WS02004404           JUNCTION      0.16   430.56     0  02:33     0.00457        3.69       0.323
  WS02004406           JUNCTION      0.00   430.58     0  02:33           0        3.67       0.650
  WS02004409           JUNCTION      0.00   430.16     0  02:34           0        3.64       0.172
  WS02004410           JUNCTION      0.00   428.97     0  02:35           0        3.64       0.231
  WS02004411           JUNCTION      0.00   428.37     0  02:36           0        3.63       0.262
  WS02004412           JUNCTION      0.00   427.81     0  02:36           0        3.62       0.318
  WS02004413           JUNCTION      0.00   427.66     0  02:37           0        3.61       0.525
  WS02004405           JUNCTION      0.04   430.64     0  02:33     0.00107        3.68       0.344
  WS02006109           JUNCTION      1.23   432.20     0  02:28      0.0347        3.76       0.258
  WS02006110           JUNCTION      0.00   432.28     0  02:27           0        3.75       0.284
  WS02006111           JUNCTION      0.00   443.36     0  02:29           0        3.74       0.024
  WS02006112           JUNCTION      9.34   437.02     0  02:28      0.0247        3.76       0.453
  WS02006113           JUNCTION      0.00   432.34     0  02:27           0        3.74       0.081
  WS02006115           JUNCTION      0.00   434.96     0  02:29           0        3.75       0.264
  WS02006116           JUNCTION      0.00   432.51     0  02:31           0        3.74       0.265
  WS02006230           JUNCTION     10.28   286.93     0  02:38        0.29         2.9       0.279
  WS02006231           JUNCTION      0.00   275.94     0  02:38           0         2.6      -0.249
  WS02006232           JUNCTION      0.00   275.48     0  02:38           0         2.6       0.300
  WS02006234           JUNCTION      0.00   274.99     0  02:37           0         2.6      -0.247
  WS02006235           JUNCTION      0.00   321.46     0  02:17           0        2.97       0.241
  WS02006238           JUNCTION      0.00   228.30     0  02:17           0       0.813      -0.023
  WS02006240           JUNCTION      0.00   115.11     0  02:18           0       0.525       0.293
  WS02006242           JUNCTION      0.00    98.31     0  02:19           0       0.371       0.332
  WS02006243           JUNCTION      0.00    54.65     0  02:20           0        0.25       1.852
  WS02006245           JUNCTION      0.00    41.11     0  02:15           0        0.19       2.386
  WS02006247           JUNCTION      0.00    41.16     0  02:15           0       0.158       0.267
  WS02006248           JUNCTION      0.00    41.17     0  02:15           0       0.143      -0.020
  WS02006249           JUNCTION      0.00    41.24     0  02:14           0       0.141       0.490
  WS02006239           JUNCTION      0.00   133.84     0  02:17           0       0.679      -0.065
  WS02006251           JUNCTION      0.08    41.34     0  02:13     0.00217       0.141       0.043
  WS02006252           JUNCTION      0.00     0.00     0  00:00           0           0       0.000 ltr
  WS02006253           JUNCTION      1.39    41.30     0  02:12     0.00319       0.139       0.110
  WS02006256           JUNCTION      0.00   300.00     0  02:16           0        2.92      -0.416
  WS02004138           JUNCTION      0.00   285.00     0  02:01           0        6.87       0.057
  WS02004139           JUNCTION      0.32   285.32     0  02:04     0.00905        6.88       0.524
  WS02004407           JUNCTION      0.00   430.27     0  02:34           0        3.65       0.077
  WS02006228           JUNCTION      0.00   430.81     0  02:28           0        3.74       0.199
  WS02006229           JUNCTION      0.00   431.36     0  02:27           0        3.75       0.282
  WS02006280           JUNCTION      0.00   211.73     0  02:14           0       0.862       0.009
  WS02006284           JUNCTION      0.10   211.73     0  02:13      0.0027       0.863       0.130
  WS02006287           JUNCTION      0.00   211.60     0  02:13           0       0.861       0.084
  WSF200               JUNCTION      0.00   427.50     0  02:38           0        3.58       0.053
  HS02004901           JUNCTION     11.52    11.52     0  02:07      0.0297      0.0298       6.257
  HS02004881           JUNCTION      4.69    40.21     0  02:12      0.0129       0.136       0.044
  HS02004876           JUNCTION      7.51    35.84     0  02:13      0.0248       0.123       0.424
  HS02004870           JUNCTION      8.31    28.56     0  02:13      0.0245      0.0987       0.108
  HS02004862           JUNCTION      6.81    20.90     0  02:13      0.0301      0.0743       0.225
  HS02004856           JUNCTION      6.16    14.18     0  02:12      0.0184      0.0457       3.248
  HS02004852           JUNCTION      0.00     8.48     0  02:13           0      0.0273       0.180
  HS02004848           JUNCTION     13.46    13.46     0  02:14      0.0583      0.0583       0.076
  HS02004842           JUNCTION      0.00     5.42     0  02:23           0      0.0441      41.792
  HS02004837           JUNCTION     19.69    24.38     0  02:11       0.222       0.253       0.313
  HS02004830           JUNCTION      0.15    24.51     0  02:12     0.00423       0.243       0.509
  HS02004824           JUNCTION     14.95    39.32     0  02:14      0.0765       0.318       0.170
  HS02004817           JUNCTION      0.60    39.91     0  02:14      0.0169       0.335       5.236
  HS02004807           JUNCTION     15.62    54.09     0  02:14      0.0451       0.363       1.177
  HS02004802           JUNCTION      0.00    54.35     0  02:15           0       0.359       1.141
  HS02004799           JUNCTION     12.04   134.32     0  02:11      0.0365       0.444       0.526
  HS02004792           JUNCTION     53.69   122.62     0  02:11        0.16       0.408       0.102
  HS02004788           JUNCTION     18.02    71.37     0  02:11      0.0977        0.25       0.155
  HS02004785           JUNCTION      0.15    53.90     0  02:11     0.00423       0.154       0.312
  HS02004777           JUNCTION      0.03    54.31     0  02:09    0.000846       0.154       3.476
  HS02004770           JUNCTION     45.41    55.68     0  02:08       0.127       0.155       2.040
  HS02004480           JUNCTION      0.00   158.29     0  02:12           0       0.518       0.136
  HS02004479           JUNCTION      0.00    24.54     0  02:13           0      0.0857       0.859
  HS02004478           JUNCTION      0.00   211.58     0  02:13           0       0.862       0.071
  YS02001745           JUNCTION     67.93    98.48     0  03:43       0.774       0.778       1.484
  YS02001748           JUNCTION      0.04   135.82     0  03:44     0.00127       0.769       3.229
  YS02001751           JUNCTION      0.01   140.97     0  03:43     0.00031       0.741       3.404
  YS02001754           JUNCTION      0.26    84.58     0  02:57     0.00733       0.723       3.628
  YS02001762           JUNCTION      0.00   105.81     0  02:54           0       0.826       2.824
  YS02001765           JUNCTION      0.00    99.29     0  02:44           0       0.829       3.140
  YS02001767           JUNCTION      0.54   128.04     0  02:56      0.0151       0.851       4.460
  YS02001770           JUNCTION     88.95   130.45     0  02:56       0.907       0.925       3.771
  YS02001774           JUNCTION      0.00    52.67     0  02:56           0      0.0755      54.883
  YS02001779           JUNCTION      0.01    49.33     0  02:56    0.000141      0.0314     102.680
  YS02001882           JUNCTION      0.00     3.72     0  02:04           0     0.00496      48.873
  YS02001884           JUNCTION      0.00    11.66     0  02:05           0      0.0199      31.392
  YS02001759           JUNCTION     87.64   191.77     0  02:52       0.847        1.64       1.518
  YS02001887           JUNCTION    117.47   117.47     0  02:31        1.01        1.02       0.694
  YS02001890           JUNCTION      0.00   116.36     0  02:33           0           1       0.779
  YS02001898           JUNCTION      0.00   115.73     0  02:36           0       0.988       0.210
  YS02001901           JUNCTION      0.00   115.57     0  02:38           0       0.988       0.552
  YS02001904           JUNCTION      0.00   115.20     0  02:38           0       0.986       0.512
  YS02001907           JUNCTION      0.00   206.33     0  02:42           0        2.11       1.047
  YS02001910           JUNCTION      0.00    92.25     0  02:50           0        1.14       0.890
  YS02001915           JUNCTION     61.38    91.67     0  02:47       0.663        1.14       0.390
  YS02001918           JUNCTION      0.00    31.28     0  03:02           0       0.478       0.227
  YS02001619           JUNCTION     59.52    59.52     0  02:43       0.654       0.654       2.044
  YS02001629           JUNCTION      0.00    86.88     0  02:52           0       0.572       5.651
  YS02001641           JUNCTION      0.00   132.39     0  02:51           0        1.23       1.860
  YS02001644           JUNCTION     64.44   228.53     0  06:07       0.743         2.4       1.141
  YS02001652           JUNCTION      0.00    96.34     0  02:40           0       0.668       3.800
  YS02001655           JUNCTION      0.15   135.66     0  02:50     0.00434       0.694       3.813
  YS02001920           JUNCTION      2.87    31.28     0  03:01      0.0809        0.48       0.416
  YS02001923           JUNCTION      0.04    28.42     0  03:01     0.00106       0.399       0.072
  YS02001926           JUNCTION      0.05    28.39     0  03:01     0.00147         0.4       0.519
  YS02001929           JUNCTION     28.35    28.35     0  03:01       0.399       0.399       0.071
  YS02001658           JUNCTION      0.00   120.40     0  03:47           0       0.716       3.523
  YS02001661           JUNCTION      0.00    84.35     0  03:47           0       0.738       3.054
  YS02001664           JUNCTION     82.69    82.69     0  02:32       0.741       0.741       0.694
  YS02001622           JUNCTION      0.00    80.45     0  02:52           0       0.641       5.367
  YS02001633           JUNCTION     65.43   128.71     0  02:50       0.765        1.29       2.635
  YS02001649           JUNCTION      0.00   284.99     0  02:50           0        2.54       1.565
  YS02001757           JUNCTION      0.00   481.48     0  02:48           0         4.4       2.205
  YS02001895           JUNCTION      0.00   115.92     0  02:34           0       0.992       0.370
  YS02001625           JUNCTION      0.00    87.07     0  03:51           0        0.61       6.964
  YS02163301           JUNCTION      0.00    74.72     0  02:48           0       0.549       4.812
  YS02163601           JUNCTION      0.11   137.03     0  02:55      0.0031        1.25       2.551
  YS02164001           JUNCTION      0.00   136.09     0  02:54           0        1.23       1.856
  YS02001647           JUNCTION      0.00   193.00     0  02:51           0        2.01       1.501
  YSB1154              JUNCTION     13.35    13.35     0  02:10      0.0442      0.0454       3.284
  YSB6556              JUNCTION      0.00    13.18     0  02:12           0      0.0464       2.757
  YSB1174              JUNCTION     13.04    13.04     0  02:06      0.0322      0.0331       4.038
  YSB1171              JUNCTION      0.00    24.58     0  02:11           0       0.085       8.035
  YS02006553           JUNCTION      0.00   206.40     0  02:43           0         2.1       0.680
  YS02006561           JUNCTION      0.00   303.53     0  02:41           0        2.97       0.021
  YS02006556           JUNCTION      0.00   206.48     0  02:44           0         2.1       0.490
  YS02006558           JUNCTION     98.43   303.54     0  02:41       0.923           3       0.150
  YS02001783           JUNCTION      0.00   303.53     0  02:41           0        2.97       0.050
  YS02001784           JUNCTION      1.06   304.59     0  02:41      0.0299           3       0.082
  YS02001786           JUNCTION      0.06   304.63     0  02:42     0.00159           3       0.079
  YS02001788           JUNCTION      0.07   304.70     0  02:42       0.002           3       0.047
  YS02001790           JUNCTION      0.15   304.85     0  02:42     0.00437           3       0.057
  YS02001791           JUNCTION      0.00   304.84     0  02:42           0           3       0.023
  YS02001793           JUNCTION      0.00   501.46     0  02:20           0        3.03       0.237
  WSC                  OUTFALL       0.00   736.02     0  02:42           0        10.9       0.000
  JK-storage           STORAGE       0.00   858.12     0  02:20           0        3.17       0.272
  CC-storage           STORAGE       0.00   480.54     0  02:48           0        3.92       1.687
  XR-storage           STORAGE     322.11   322.11     0  02:39         7.1         7.7      -0.001
  
  
  **********************
  Node Surcharge Summary
  **********************
  
  Surcharging occurs when water rises above the top of the highest conduit.
  ---------------------------------------------------------------------
                                               Max. Height   Min. Depth
                                   Hours       Above Crown    Below Rim
  Node                 Type      Surcharged         Meters       Meters
  ---------------------------------------------------------------------
  WS02006109           JUNCTION        0.35          0.035        1.785
  WS02006256           JUNCTION        5.69          2.050        0.000
  WS02006228           JUNCTION        0.32          0.038        2.162
  YS02001748           JUNCTION        2.84          0.202        0.988
  YS02001751           JUNCTION        3.77          0.480        0.720
  YS02001754           JUNCTION        4.35          0.701        0.449
  YS02001762           JUNCTION        5.12          0.959        0.191
  YS02001765           JUNCTION        4.93          0.909        0.191
  YS02001767           JUNCTION        4.82          0.870        0.160
  YS02001770           JUNCTION        4.71          0.834        0.086
  YS02001774           JUNCTION        5.05          0.937        0.113
  YS02001779           JUNCTION        4.26          0.673        0.007
  YS02001759           JUNCTION        5.22          0.995        0.215
  YS02001619           JUNCTION        3.64          0.426        0.184
  YS02001629           JUNCTION        3.64          0.425        0.045
  YS02001641           JUNCTION        5.01          0.915        0.185
  YS02001644           JUNCTION        5.02          0.920        0.000
  YS02001652           JUNCTION        4.44          0.731        0.399
  YS02001655           JUNCTION        3.85          0.507        0.693
  YS02001658           JUNCTION        2.90          0.215        1.085
  YS02001622           JUNCTION        3.71          0.451        0.169
  YS02001633           JUNCTION        4.88          0.880        0.180
  YS02001649           JUNCTION        5.16          0.967        0.083
  YS02001757           JUNCTION        5.40          1.098        0.112
  YS02001625           JUNCTION        4.51          0.750        0.030
  YS02163301           JUNCTION        4.75          0.837        0.193
  YS02163601           JUNCTION        5.15          0.955        0.125
  YS02164001           JUNCTION        4.93          0.895        0.205
  YS02001647           JUNCTION        4.48          0.744        0.156
  
  
  *********************
  Node Flooding Summary
  *********************
  
  Flooding refers to all water that overflows a node, whether it ponds or not.
  --------------------------------------------------------------------------
                                                             Total   Maximum
                                 Maximum   Time of Max       Flood    Ponded
                        Hours       Rate    Occurrence      Volume     Depth
  Node                 Flooded       LPS   days hr:min    10^6 ltr    Meters
  --------------------------------------------------------------------------
  WS02006256              2.71    254.12      0  02:16       0.460     0.000
  YS02001644              1.95    228.53      0  06:07       0.818     0.000
  XR-storage              0.93     33.90      0  02:58       0.051     0.000
  
  
  **********************
  Storage Volume Summary
  **********************
  
  --------------------------------------------------------------------------------------------------
                         Average     Avg  Evap Exfil       Maximum     Max    Time of Max    Maximum
                          Volume    Pcnt  Pcnt  Pcnt        Volume    Pcnt     Occurrence    Outflow
  Storage Unit           1000 m3    Full  Loss  Loss       1000 m3    Full    days hr:min        LPS
  --------------------------------------------------------------------------------------------------
  JK-storage               0.191      65     0     0         0.232      79       0  03:33     538.19
  CC-storage               1.907      12     0     0         3.805      24       0  06:01      84.67
  XR-storage               0.846      91     0     0         0.926     100       0  02:58     285.00
  
  
  ***********************
  Outfall Loading Summary
  ***********************
  
  ---------------------------------------------------------------------------------------------------------------------------------
                         Flow       Avg       Max       Total         Total         Total         Total         Total         Total
                         Freq      Flow      Flow      Volume           COD            SS            TN            TP         NH4-N
  Outfall Node           Pcnt       LPS       LPS    10^6 ltr            kg            kg            kg            kg            kg
  ---------------------------------------------------------------------------------------------------------------------------------
  WSC                   99.99    425.61    736.02      10.936      1673.854      2702.632       143.784        17.698        89.148
  ---------------------------------------------------------------------------------------------------------------------------------
  System                99.99    425.61    736.02      10.936      1673.854      2702.632       143.784        17.698        89.148
  
  
  ********************
  Link Flow Summary
  ********************
  
  -----------------------------------------------------------------------------
                                 Maximum  Time of Max   Maximum    Max/    Max/
                                  |Flow|   Occurrence   |Veloc|    Full    Full
  Link                 Type          LPS  days hr:min     m/sec    Flow   Depth
  -----------------------------------------------------------------------------
  WS02003066WSF200     CONDUIT    427.50     0  02:38      2.62    0.07    0.20
  WS02006287WS02006284 CONDUIT    211.63     0  02:13      1.64    0.10    0.22
  WS02006284WS02006280 CONDUIT    211.73     0  02:14      1.88    0.09    0.20
  WS02006280WS02006229 CONDUIT    211.74     0  02:14      3.02    0.05    0.14
  WS02006229WS02006228 CONDUIT    430.81     0  02:28      0.86    1.43    1.00
  WS02006256WS02006235 CONDUIT    288.26     0  07:25      4.19    3.05    1.00
  WS02006253WS02006251 CONDUIT     41.26     0  02:13      0.49    0.12    0.27
  WS02006252WS02006251 CONDUIT      0.00     0  00:00      0.00    0.00    0.00
  WS02006251WS02006249 CONDUIT     41.24     0  02:14      0.54    0.12    0.25
  WS02006249WS02006248 CONDUIT     41.17     0  02:15      0.65    0.23    0.23
  WS02006248WS02006247 CONDUIT     41.16     0  02:15      0.62    0.09    0.29
  WS02006247WS02006245 CONDUIT     41.11     0  02:15      0.57    0.33    0.36
  WS02006245WS02006243 CONDUIT     42.41     0  02:19      0.70    0.13    0.41
  WS02006243WS02006242 CONDUIT     61.68     0  03:29      0.57    0.13    0.55
  WS02006242WS02006240 CONDUIT     83.78     0  03:29      0.71    0.33    0.66
  WS02006240WS02006239 CONDUIT    106.12     0  03:28      0.75    0.33    0.68
  WS02006239WS02006238 CONDUIT    131.72     0  03:28      0.86    0.42    0.80
  WS02006238WS02006235 CONDUIT    196.42     0  04:37      1.29    0.44    0.84
  WS02006235WS02006234 CONDUIT    274.99     0  02:37      1.12    2.90    0.79
  WS02006234WS02006232 CONDUIT    275.48     0  02:38      0.99    0.56    0.86
  WS02006232WS02006231 CONDUIT    275.94     0  02:38      0.86    0.58    0.83
  WS02006231WS02006230 CONDUIT    276.65     0  02:38      1.21    4.20    0.70
  WS02006230WS02006229 CONDUIT    288.26     0  02:39      0.75    6.41    1.00
  WS02006228WS02006109 CONDUIT    430.97     0  02:28      0.86    1.88    1.00
  WS02006116WS02004401 CONDUIT    431.60     0  02:31      0.68    0.59    0.75
  WS02006115WS02006116 CONDUIT    432.51     0  02:31      0.80    0.56    0.67
  WS02006113WS02006111 CONDUIT    443.36     0  02:29      2.28    0.53    0.41
  WS02006112WS02006115 CONDUIT    434.96     0  02:29      0.67    0.26    0.80
  WS02006111WS02006112 CONDUIT    432.51     0  02:29      1.24    0.21    0.65
  WS02006110WS02006113 CONDUIT    432.34     0  02:27      1.07    0.39    0.75
  WS02006109WS02006110 CONDUIT    432.28     0  02:27      0.87    0.83    0.96
  WS02004411WS02004412 CONDUIT    427.81     0  02:36      0.88    0.61    0.62
  WS02004401WS02004402 CONDUIT    430.72     0  02:31      0.65    0.52    0.78
  WS02004413WS02003067 CONDUIT    427.46     0  02:37      0.98    0.18    0.54
  WS02004412WS02004413 CONDUIT    427.66     0  02:37      0.78    0.29    0.71
  WS02004410WS02004411 CONDUIT    428.37     0  02:36      0.85    0.59    0.61
  WS02004409WS02004410 CONDUIT    428.97     0  02:35      0.89    0.55    0.60
  WS02004407WS02004409 CONDUIT    430.16     0  02:34      1.39    0.15    0.43
  WS02004406WS02004407 CONDUIT    430.27     0  02:34      0.91    0.19    0.58
  WS02004405WS02004406 CONDUIT    430.58     0  02:33      0.58    0.85    0.89
  WS02004404WS02004405 CONDUIT    430.60     0  02:33      0.58    4.22    0.89
  WS02004403WS02004404 CONDUIT    430.40     0  02:33      0.60    0.31    0.85
  WS02004402WS02004403 CONDUIT    430.31     0  02:33      0.63    0.62    0.81
  WS02004139WS02001211 CONDUIT    286.77     0  06:30      0.54    0.36    0.53
  WS02004138WS02004139 CONDUIT    285.00     0  02:04      2.39    0.06    0.38
  WS02003067WS02003066 CONDUIT    427.50     0  02:38      1.06    0.14    0.39
  WS02001213WS02003059 CONDUIT    298.44     0  03:41      0.59    0.49    0.70
  WS02001212WS02001213 CONDUIT    296.09     0  03:41      1.19    0.46    0.39
  WS02001211WS02001212 CONDUIT    294.88     0  03:42      0.67    0.23    0.57
  WS02003072WS02003073 CONDUIT    734.21     0  02:41      1.58    1.59    0.43
  WS02003069WS02003072 CONDUIT    734.22     0  02:41      1.50    0.35    0.45
  WS02003060WS02003069 CONDUIT    733.94     0  02:40      1.76    0.29    0.40
  WS02003059WS02003060 CONDUIT    301.86     0  03:40      0.82    0.20    0.59
  HS02004901HS02004770 CONDUIT     10.62     0  02:10      0.05    0.04    0.32
  HS02004876HS02004881 CONDUIT     35.94     0  02:13      0.57    0.38    0.09
  HS02004870HS02004876 CONDUIT     28.53     0  02:13      0.40    0.02    0.10
  HS02004842HS02004848 CONDUIT      5.42     0  02:23      0.03    0.00    0.27
  HS02004837HS02004842 CONDUIT      5.65     0  02:23      0.42    0.00    0.29
  HS02004830HS02004837 CONDUIT     24.36     0  02:12      0.45    0.02    0.08
  HS02004824HS02004830 CONDUIT     24.50     0  02:13      0.49    0.03    0.07
  HS02004817HS02004824 CONDUIT     39.31     0  02:14      0.17    0.02    0.40
  HS02004770HS02004777 CONDUIT     54.28     0  02:09      0.23    0.10    0.34
  HS02004799HS02004480 CONDUIT    134.07     0  02:11      0.60    0.17    0.32
  HS02004792HS02004799 CONDUIT    122.53     0  02:11      0.69    0.08    0.25
  HS02004788HS02004792 CONDUIT     71.29     0  02:12      0.84    0.05    0.12
  HS02004785HS02004788 CONDUIT     53.78     0  02:12      0.52    0.41    0.15
  HS02004777HS02004785 CONDUIT     53.75     0  02:11      0.28    0.07    0.27
  HS02004480HS02004478 CONDUIT    158.18     0  02:12      0.97    0.67    0.23
  HS02004479HS02004480 CONDUIT     24.83     0  02:14      0.15    0.02    0.31
  HS02004862HS02004870 CONDUIT     20.84     0  02:14      0.47    0.02    0.06
  HS02004848HS02004852 CONDUIT      8.48     0  02:13      0.32    0.01    0.04
  HS02004856HS02004862 CONDUIT     14.14     0  02:13      0.35    0.01    0.06
  HS02004852HS02004856 CONDUIT      8.42     0  02:14      0.13    0.01    0.09
  HS02004802HS02004478 CONDUIT     54.79     0  02:16      0.31    0.05    0.26
  HS02004478WS02006287 CONDUIT    211.60     0  02:13      1.33    0.06    0.18
  HS02004817HS02004807 CONDUIT     40.45     0  02:17      0.11    0.02    0.52
  HS02004807HS02004802 CONDUIT     54.35     0  02:15      0.26    0.10    0.30
  YS02001759YS02001757 CONDUIT    192.40     0  02:52      0.24    0.14    1.00
  YS02001762YS02001759 CONDUIT    107.55     0  02:52      0.17    0.12    1.00
  YS02001765YS02001762 CONDUIT    105.81     0  02:54      0.24    0.10    1.00
  YS02001770YS02001767 CONDUIT    127.50     0  02:56      0.30    0.51    1.00
  YS02001774YS02001770 CONDUIT     52.67     0  02:56      0.13    0.03    1.00
  YS02001779YS02001774 CONDUIT     49.32     0  02:56      0.08    0.02    1.00
  YS02001649YS02001757 CONDUIT    287.32     0  02:55      0.37    0.17    1.00
  YS02001767YS02001765 CONDUIT     99.29     0  02:44      0.27    0.12    1.00
  YS02006561YS02001783 CONDUIT    303.53     0  02:41      1.77    0.16    0.37
  YS02001783YS02001784 CONDUIT    303.53     0  02:41      1.22    0.42    0.50
  YS02001784YS02001785 CONDUIT    304.58     0  02:42      1.30    0.71    0.47
  YS02001788YS02001790 CONDUIT    304.70     0  02:42      1.86    0.22    0.36
  YS02001790YS02001791 CONDUIT    304.84     0  02:42      2.14    0.33    0.33
  YS02001791YS02001793 CONDUIT    304.85     0  02:43      4.35    0.13    0.50
  YS02001910YS02001907 CONDUIT     92.52     0  02:50      0.49    0.05    0.73
  YS02001786YS02001788 CONDUIT    304.63     0  02:42      1.73    0.59    0.38
  YS02001915YS02001910 CONDUIT     92.25     0  02:50      0.45    0.05    0.52
  YS02001918YS02001915 CONDUIT     31.27     0  03:02      0.44    0.02    0.25
  YS02001923YS02001920 CONDUIT     28.41     0  03:01      0.43    0.01    0.14
  YS02001926YS02001923 CONDUIT     28.38     0  03:01      0.48    0.04    0.13
  YS02001929YS02001926 CONDUIT     28.34     0  03:01      0.50    0.01    0.12
  YS02001920YS02001918 CONDUIT     31.28     0  03:02      0.45    0.03    0.14
  YS02001629YS02163301 CONDUIT     74.72     0  02:48      0.11    0.09    1.00
  YS02001619YS02001622 CONDUIT     80.45     0  02:52      0.65    0.12    1.00
  YS02001622YS02001625 CONDUIT     87.07     0  03:51      0.25    0.05    1.00
  YS02001625YS02001629 CONDUIT     86.88     0  02:52      0.25    0.04    1.00
  YS02163301YS02001633 CONDUIT     63.40     0  02:50      0.08    0.06    1.00
  YS02163601YS02164001 CONDUIT    136.09     0  02:54      0.17    0.12    1.00
  YS02164001YS02001641 CONDUIT    132.39     0  02:51      0.17    0.18    1.00
  YS02001641YS02001644 CONDUIT    130.21     0  02:51      0.17    0.42    1.00
  YS02001647YS02001649 CONDUIT    216.36     0  02:55      0.29    0.11    1.00
  YS02006553YS02006556 CONDUIT    206.48     0  02:44      0.30    0.18    0.81
  YS02006556YS02006558 CONDUIT    206.53     0  02:44      0.29    0.16    0.84
  YSB6556YSB1171       CONDUIT     13.47     0  02:14      0.06    0.01    0.58
  YS02001907YS02006553 CONDUIT    206.40     0  02:43      0.25    0.24    0.92
  YS02006558YS02006561 CONDUIT    303.53     0  02:41      2.27    0.67    0.48
  YS02001633YS02163601 CONDUIT    136.92     0  02:55      0.17    0.14    1.00
  YS02001644YS02001647 CONDUIT    193.00     0  02:51      0.26    0.11    1.00
  YS02001745YS02001748 CONDUIT    135.77     0  03:44      1.40    0.05    0.92
  YS02001748YS02001751 CONDUIT    140.96     0  03:43      1.09    0.07    1.00
  YS02001751YS02001754 CONDUIT     84.32     0  02:57      0.96    0.04    1.00
  YS02001754YS02001757 CONDUIT    111.97     0  02:52      0.33    0.05    1.00
  YS02001882YS02001884 CONDUIT      3.72     0  02:04      0.07    0.00    0.45
  YS02001884YS02001887 CONDUIT     11.66     0  02:05      0.05    0.02    0.55
  YS02001890YS02001895 CONDUIT    115.92     0  02:34      0.28    0.05    0.52
  YS02001895YS02001898 CONDUIT    115.73     0  02:36      0.46    0.20    0.38
  YS02001898YS02001901 CONDUIT    115.57     0  02:38      0.33    0.07    0.46
  YS02001901YS02001904 CONDUIT    115.20     0  02:38      0.29    0.18    0.51
  YS02001904YS02001907 CONDUIT    115.28     0  02:38      0.21    0.04    0.67
  YS02001887YS02001890 CONDUIT    116.36     0  02:33      0.24    0.20    0.60
  YS02001652YS02001649 CONDUIT    127.92     0  02:50      0.30    0.06    1.00
  YS02001655YS02001652 CONDUIT     96.34     0  02:40      1.01    0.05    1.00
  YS02001658YS02001655 CONDUIT    135.51     0  02:50      1.27    0.06    1.00
  YS02001661YS02001658 CONDUIT    120.40     0  03:47      1.44    0.05    0.94
  YS02001664YS02001661 CONDUIT     82.69     0  02:32      1.10    0.03    0.69
  YSB1154YSB6556       CONDUIT     13.18     0  02:12      0.19    0.02    0.47
  YSB1174YSB1171       CONDUIT     12.10     0  02:08      0.05    0.02    0.59
  YSB1171HS02004479    CONDUIT     24.54     0  02:13      0.54    0.02    0.45
  HS02004881HS02006253 CONDUIT     40.21     0  02:13      1.68    0.01    0.03
  YS02001793JiankangQianchi CONDUIT    858.12     0  02:20      1.75    0.07    0.82
  YS02001757CaochengTiaoxuchi CONDUIT    480.54     0  02:48      0.96    0.21    1.00
  WSF200WS02003060     CONDUIT    427.61     0  02:38      1.52    0.09    0.30
  1                    CONDUIT    736.02     0  02:42      3.06    0.26    0.35
  CC-Pump-1            PUMP         0.00     0  00:00              0.00
  CC-Pump-2            PUMP         0.00     0  00:00              0.00
  JK-Pump-1            PUMP       300.00     0  02:16              1.00
  JK-Pump-2            PUMP         0.00     0  00:00              0.00
  XR-Pump-1            PUMP        95.00     0  00:00              1.00
  XR-Pump-2            PUMP        95.00     0  00:25              1.00
  XR-Pump-3            PUMP        95.00     0  02:01              1.00
  XR-Pump-4            PUMP         0.00     0  00:00              0.00
  
  
  ***************************
  Flow Classification Summary
  ***************************
  
  -------------------------------------------------------------------------------------
                      Adjusted    ---------- Fraction of Time in Flow Class ---------- 
                       /Actual         Up    Down  Sub   Sup   Up    Down  Norm  Inlet 
  Conduit               Length    Dry  Dry   Dry   Crit  Crit  Crit  Crit  Ltd   Ctrl  
  -------------------------------------------------------------------------------------
  WS02003066WSF200        1.00   0.24  0.00  0.00  0.00  0.76  0.00  0.00  0.70  0.00
  WS02006287WS02006284    1.00   0.07  0.06  0.00  0.56  0.32  0.00  0.00  0.78  0.00
  WS02006284WS02006280    1.00   0.09  0.00  0.00  0.00  0.00  0.00  0.91  0.00  0.00
  WS02006280WS02006229    1.00   0.09  0.00  0.00  0.00  0.00  0.00  0.91  0.00  0.00
  WS02006229WS02006228    1.00   0.00  0.00  0.00  0.99  0.00  0.00  0.01  0.00  0.00
  WS02006256WS02006235    1.00   0.15  0.00  0.00  0.84  0.02  0.00  0.00  0.03  0.00
  WS02006253WS02006251    1.00   0.03  0.04  0.00  0.91  0.00  0.01  0.00  0.00  0.00
  WS02006252WS02006251    1.00   1.00  0.00  0.00  0.00  0.00  0.00  0.00  0.00  0.00
  WS02006251WS02006249    1.00   0.00  0.00  0.00  1.00  0.00  0.00  0.00  0.92  0.00
  WS02006249WS02006248    1.00   0.00  0.01  0.00  0.36  0.00  0.63  0.00  0.00  0.00
  WS02006248WS02006247    1.00   0.01  0.00  0.00  0.95  0.00  0.00  0.04  0.62  0.00
  WS02006247WS02006245    1.00   0.02  0.00  0.00  0.92  0.00  0.00  0.06  0.00  0.00
  WS02006245WS02006243    1.00   0.02  0.00  0.00  0.84  0.00  0.00  0.14  0.02  0.00
  WS02006243WS02006242    1.00   0.03  0.00  0.00  0.88  0.00  0.00  0.09  0.42  0.00
  WS02006242WS02006240    1.00   0.03  0.09  0.00  0.87  0.00  0.01  0.00  0.01  0.00
  WS02006240WS02006239    1.00   0.12  0.00  0.00  0.76  0.00  0.00  0.12  0.05  0.00
  WS02006239WS02006238    1.00   0.12  0.00  0.00  0.85  0.00  0.00  0.03  0.01  0.00
  WS02006238WS02006235    1.00   0.12  0.02  0.00  0.85  0.00  0.00  0.00  0.00  0.00
  WS02006235WS02006234    1.00   0.16  0.00  0.00  0.77  0.00  0.07  0.00  0.00  0.00
  WS02006234WS02006232    1.00   0.17  0.00  0.00  0.83  0.00  0.00  0.00  0.01  0.00
  WS02006232WS02006231    1.00   0.17  0.03  0.00  0.80  0.00  0.01  0.00  0.01  0.00
  WS02006231WS02006230    1.00   0.19  0.00  0.00  0.25  0.00  0.56  0.00  0.00  0.00
  WS02006230WS02006229    1.00   0.00  0.00  0.00  0.98  0.00  0.00  0.02  0.01  0.00
  WS02006228WS02006109    1.00   0.00  0.00  0.00  1.00  0.00  0.00  0.00  0.01  0.00
  WS02006116WS02004401    1.00   0.07  0.00  0.00  0.93  0.00  0.00  0.00  0.01  0.00
  WS02006115WS02006116    1.00   0.07  0.00  0.00  0.85  0.00  0.00  0.08  0.00  0.00
  WS02006113WS02006111    1.00   0.04  0.00  0.00  0.02  0.94  0.00  0.00  0.27  0.00
  WS02006112WS02006115    1.00   0.05  0.03  0.00  0.92  0.00  0.00  0.00  0.00  0.00
  WS02006111WS02006112    1.00   0.05  0.00  0.00  0.94  0.00  0.00  0.01  0.92  0.00
  WS02006110WS02006113    1.00   0.01  0.03  0.00  0.96  0.00  0.00  0.00  0.00  0.00
  WS02006109WS02006110    1.00   0.00  0.01  0.00  0.98  0.00  0.01  0.00  0.00  0.00
  WS02004411WS02004412    1.00   0.19  0.00  0.00  0.81  0.00  0.00  0.00  0.00  0.00
  WS02004401WS02004402    1.00   0.07  0.00  0.00  0.93  0.00  0.00  0.00  0.04  0.00
  WS02004413WS02003067    1.00   0.20  0.03  0.00  0.00  0.00  0.78  0.00  0.00  0.00
  WS02004412WS02004413    1.00   0.19  0.00  0.00  0.80  0.01  0.00  0.00  0.00  0.00
  WS02004410WS02004411    1.00   0.19  0.00  0.00  0.81  0.00  0.00  0.00  0.00  0.00
  WS02004409WS02004410    1.00   0.19  0.00  0.00  0.81  0.00  0.00  0.00  0.00  0.00
  WS02004407WS02004409    1.00   0.18  0.00  0.00  0.80  0.02  0.00  0.00  0.73  0.00
  WS02004406WS02004407    1.00   0.00  0.18  0.00  0.82  0.00  0.00  0.00  0.00  0.00
  WS02004405WS02004406    1.00   0.00  0.00  0.00  1.00  0.00  0.00  0.00  0.04  0.00
  WS02004404WS02004405    1.00   0.00  0.00  0.00  1.00  0.00  0.00  0.00  0.03  0.00
  WS02004403WS02004404    1.00   0.00  0.08  0.00  0.92  0.00  0.00  0.00  0.04  0.00
  WS02004402WS02004403    1.00   0.08  0.00  0.00  0.92  0.00  0.00  0.00  0.00  0.00
  WS02004139WS02001211    1.00   0.00  0.00  0.00  1.00  0.00  0.00  0.00  0.00  0.00
  WS02004138WS02004139    1.00   0.00  0.00  0.00  0.99  0.01  0.00  0.00  1.00  0.00
  WS02003067WS02003066    1.00   0.22  0.01  0.00  0.77  0.00  0.00  0.00  0.00  0.00
  WS02001213WS02003059    1.00   0.00  0.00  0.00  0.99  0.00  0.00  0.00  0.00  0.00
  WS02001212WS02001213    1.00   0.00  0.00  0.00  0.34  0.00  0.66  0.00  0.00  0.00
  WS02001211WS02001212    1.00   0.00  0.00  0.00  1.00  0.00  0.00  0.00  0.00  0.00
  WS02003072WS02003073    1.00   0.00  0.00  0.00  0.00  0.00  0.00  1.00  0.00  0.00
  WS02003069WS02003072    1.00   0.00  0.00  0.00  1.00  0.00  0.00  0.00  0.43  0.00
  WS02003060WS02003069    1.00   0.00  0.00  0.00  0.98  0.02  0.00  0.00  0.27  0.00
  WS02003059WS02003060    1.00   0.00  0.00  0.00  1.00  0.00  0.00  0.00  0.02  0.00
  HS02004901HS02004770    1.00   0.09  0.00  0.00  0.91  0.00  0.00  0.00  0.02  0.00
  HS02004876HS02004881    1.00   0.01  0.00  0.00  0.99  0.00  0.00  0.00  0.00  0.00
  HS02004870HS02004876    1.00   0.00  0.00  0.00  0.99  0.01  0.00  0.00  0.95  0.00
  HS02004842HS02004848    1.00   0.00  0.09  0.00  0.91  0.00  0.00  0.00  0.67  0.00
  HS02004837HS02004842    1.00   0.00  0.00  0.00  1.00  0.00  0.00  0.00  0.11  0.00
  HS02004830HS02004837    1.00   0.00  0.00  0.00  1.00  0.00  0.00  0.00  0.99  0.00
  HS02004824HS02004830    1.00   0.00  0.00  0.00  1.00  0.00  0.00  0.00  0.00  0.00
  HS02004817HS02004824    1.00   0.00  0.00  0.00  1.00  0.00  0.00  0.00  1.00  0.00
  HS02004770HS02004777    1.00   0.00  0.09  0.00  0.91  0.00  0.00  0.00  0.06  0.00
  HS02004799HS02004480    1.00   0.00  0.02  0.00  0.87  0.00  0.11  0.00  0.00  0.00
  HS02004792HS02004799    1.00   0.00  0.00  0.00  0.99  0.01  0.00  0.00  0.98  0.00
  HS02004788HS02004792    1.00   0.00  0.00  0.00  0.99  0.01  0.00  0.00  0.98  0.00
  HS02004785HS02004788    1.00   0.00  0.00  0.00  1.00  0.00  0.00  0.00  0.00  0.00
  HS02004777HS02004785    1.00   0.00  0.00  0.00  1.00  0.00  0.00  0.00  0.19  0.00
  HS02004480HS02004478    1.00   0.10  0.00  0.00  0.59  0.00  0.00  0.31  0.00  0.00
  HS02004479HS02004480    1.00   0.02  0.00  0.00  0.98  0.00  0.00  0.00  0.15  0.00
  HS02004862HS02004870    1.00   0.00  0.00  0.00  1.00  0.00  0.00  0.00  0.06  0.00
  HS02004848HS02004852    1.00   0.09  0.00  0.00  0.91  0.00  0.00  0.00  0.72  0.00
  HS02004856HS02004862    1.00   0.00  0.16  0.00  0.84  0.00  0.00  0.00  0.76  0.00
  HS02004852HS02004856    1.00   0.09  0.02  0.00  0.89  0.00  0.00  0.00  0.83  0.00
  HS02004802HS02004478    1.00   0.09  0.02  0.00  0.89  0.00  0.00  0.00  0.01  0.00
  HS02004478WS02006287    1.00   0.12  0.00  0.00  0.78  0.09  0.00  0.00  0.78  0.00
  HS02004817HS02004807    1.00   0.00  0.09  0.00  0.91  0.00  0.00  0.00  0.00  0.00
  HS02004807HS02004802    1.00   0.09  0.00  0.00  0.90  0.00  0.00  0.01  0.01  0.00
  YS02001759YS02001757    1.00   0.00  0.00  0.00  1.00  0.00  0.00  0.00  0.18  0.00
  YS02001762YS02001759    1.00   0.00  0.00  0.00  1.00  0.00  0.00  0.00  0.04  0.00
  YS02001765YS02001762    1.00   0.00  0.00  0.00  1.00  0.00  0.00  0.00  0.21  0.00
  YS02001770YS02001767    1.00   0.00  0.00  0.00  1.00  0.00  0.00  0.00  0.00  0.00
  YS02001774YS02001770    1.00   0.00  0.11  0.00  0.88  0.00  0.00  0.00  0.06  0.00
  YS02001779YS02001774    1.00   0.00  0.00  0.00  1.00  0.00  0.00  0.00  0.25  0.00
  YS02001649YS02001757    1.00   0.00  0.00  0.00  1.00  0.00  0.00  0.00  0.19  0.00
  YS02001767YS02001765    1.00   0.00  0.00  0.00  1.00  0.00  0.00  0.00  0.01  0.00
  YS02006561YS02001783    1.00   0.17  0.00  0.00  0.00  0.83  0.00  0.00  0.74  0.00
  YS02001783YS02001784    1.00   0.00  0.17  0.00  0.83  0.00  0.00  0.00  0.00  0.00
  YS02001784YS02001785    1.00   0.00  0.00  0.00  1.00  0.00  0.00  0.00  0.24  0.00
  YS02001788YS02001790    1.00   0.00  0.00  0.00  0.18  0.82  0.00  0.00  0.78  0.00
  YS02001790YS02001791    1.00   0.00  0.00  0.00  0.01  0.99  0.00  0.00  0.53  0.00
  YS02001791YS02001793    1.00   0.00  0.00  0.00  0.13  0.87  0.00  0.00  0.22  0.00
  YS02001910YS02001907    1.00   0.00  0.00  0.00  0.98  0.00  0.00  0.02  0.13  0.00
  YS02001786YS02001788    1.00   0.00  0.00  0.00  0.19  0.81  0.00  0.00  0.00  0.00
  YS02001915YS02001910    1.00   0.00  0.00  0.00  0.99  0.01  0.00  0.00  0.23  0.00
  YS02001918YS02001915    1.00   0.00  0.00  0.00  0.99  0.01  0.00  0.00  0.82  0.00
  YS02001923YS02001920    1.00   0.00  0.00  0.00  1.00  0.00  0.00  0.00  1.00  0.00
  YS02001926YS02001923    1.00   0.00  0.05  0.00  0.00  0.00  0.95  0.00  0.00  0.00
  YS02001929YS02001926    1.00   0.00  0.09  0.00  0.91  0.00  0.00  0.00  0.86  0.00
  YS02001920YS02001918    1.00   0.00  0.00  0.00  1.00  0.00  0.00  0.00  0.00  0.00
  YS02001629YS02163301    1.00   0.14  0.01  0.00  0.85  0.00  0.00  0.00  0.00  0.00
  YS02001619YS02001622    1.00   0.09  0.00  0.00  0.91  0.00  0.00  0.00  0.00  0.00
  YS02001622YS02001625    1.00   0.09  0.00  0.00  0.91  0.00  0.00  0.00  0.12  0.00
  YS02001625YS02001629    1.00   0.09  0.09  0.00  0.78  0.00  0.04  0.00  0.00  0.00
  YS02163301YS02001633    1.00   0.00  0.14  0.00  0.86  0.00  0.00  0.00  0.00  0.00
  YS02163601YS02164001    1.00   0.00  0.05  0.00  0.95  0.00  0.00  0.00  0.00  0.00
  YS02164001YS02001641    1.00   0.01  0.05  0.00  0.95  0.00  0.00  0.00  0.07  0.00
  YS02001641YS02001644    1.00   0.00  0.00  0.00  1.00  0.00  0.00  0.00  0.00  0.00
  YS02001647YS02001649    1.00   0.00  0.17  0.00  0.83  0.00  0.00  0.00  0.01  0.00
  YS02006553YS02006556    1.00   0.01  0.00  0.00  0.99  0.00  0.00  0.00  0.03  0.00
  YS02006556YS02006558    1.00   0.00  0.00  0.00  1.00  0.00  0.00  0.00  0.00  0.00
  YSB6556YSB1171          1.00   0.03  0.06  0.00  0.92  0.00  0.00  0.00  0.00  0.00
  YS02001907YS02006553    1.00   0.00  0.01  0.00  0.98  0.00  0.00  0.00  0.00  0.00
  YS02006558YS02006561    1.00   0.17  0.00  0.00  0.00  0.83  0.00  0.00  0.74  0.00
  YS02001633YS02163601    1.00   0.00  0.00  0.00  1.00  0.00  0.00  0.00  0.19  0.00
  YS02001644YS02001647    1.00   0.00  0.17  0.00  0.83  0.00  0.00  0.00  0.00  0.00
  YS02001745YS02001748    1.00   0.00  0.00  0.00  0.71  0.02  0.00  0.27  0.12  0.00
  YS02001748YS02001751    1.00   0.00  0.00  0.00  0.92  0.08  0.00  0.00  0.22  0.00
  YS02001751YS02001754    1.00   0.00  0.00  0.00  0.81  0.00  0.00  0.19  0.02  0.00
  YS02001754YS02001757    1.00   0.00  0.00  0.00  1.00  0.00  0.00  0.00  0.25  0.00
  YS02001882YS02001884    1.00   0.13  0.01  0.00  0.86  0.00  0.00  0.00  0.00  0.00
  YS02001884YS02001887    1.00   0.04  0.04  0.00  0.92  0.00  0.00  0.00  0.00  0.00
  YS02001890YS02001895    1.00   0.00  0.15  0.00  0.85  0.00  0.00  0.00  0.00  0.00
  YS02001895YS02001898    1.00   0.15  0.00  0.00  0.82  0.00  0.03  0.00  0.00  0.00
  YS02001898YS02001901    1.00   0.14  0.01  0.00  0.85  0.00  0.00  0.00  0.02  0.00
  YS02001901YS02001904    1.00   0.14  0.00  0.00  0.86  0.00  0.00  0.00  0.00  0.00
  YS02001904YS02001907    1.00   0.00  0.14  0.00  0.86  0.00  0.00  0.00  0.00  0.00
  YS02001887YS02001890    1.00   0.00  0.00  0.00  0.98  0.00  0.02  0.00  0.00  0.00
  YS02001652YS02001649    1.00   0.00  0.00  0.00  1.00  0.00  0.00  0.00  0.24  0.00
  YS02001655YS02001652    1.00   0.00  0.00  0.00  0.81  0.00  0.00  0.19  0.02  0.00
  YS02001658YS02001655    1.00   0.00  0.12  0.00  0.78  0.10  0.00  0.00  0.10  0.00
  YS02001661YS02001658    1.00   0.12  0.00  0.00  0.71  0.17  0.00  0.00  0.15  0.00
  YS02001664YS02001661    1.00   0.09  0.00  0.00  0.69  0.23  0.00  0.00  0.43  0.00
  YSB1154YSB6556          1.00   0.08  0.00  0.00  0.92  0.00  0.00  0.00  0.02  0.00
  YSB1174YSB1171          1.00   0.03  0.03  0.00  0.94  0.00  0.00  0.00  0.00  0.00
  YSB1171HS02004479       1.00   0.03  0.00  0.00  0.96  0.00  0.00  0.01  0.13  0.00
  HS02004881HS02006253    1.00   0.04  0.00  0.00  0.00  0.00  0.00  0.96  0.00  0.00
  YS02001793JiankangQianchi    1.00   0.00  0.00  0.00  1.00  0.00  0.00  0.00  0.75  0.00
  YS02001757CaochengTiaoxuchi    1.00   0.00  0.22  0.00  0.78  0.00  0.00  0.00  0.00  0.00
  WSF200WS02003060        1.00   0.00  0.24  0.00  0.76  0.00  0.00  0.00  0.58  0.00
  1                       1.00   0.00  0.00  0.00  0.00  1.00  0.00  0.00  0.33  0.00
  
  
  *************************
  Conduit Surcharge Summary
  *************************
  
  ----------------------------------------------------------------------------
                                                           Hours        Hours 
                         --------- Hours Full --------   Above Full   Capacity
  Conduit                Both Ends  Upstream  Dnstream   Normal Flow   Limited
  ----------------------------------------------------------------------------
  WS02006229WS02006228        0.32      0.37      0.32      1.15         0.32
  WS02006256WS02006235        3.30      3.36      5.66      2.73         0.01
  WS02006235WS02006234        0.01      0.01      0.01      2.93         0.01
  WS02006231WS02006230        0.01      0.01      0.01      3.71         0.01
  WS02006230WS02006229        0.65      0.91      0.65      4.47         0.65
  WS02006228WS02006109        0.35      0.49      0.35      1.57         0.35
  WS02006111WS02006112        0.01      0.01      1.15      0.01         0.01
  WS02006110WS02006113        0.01      0.01      0.42      0.01         0.01
  WS02006109WS02006110        0.01      0.01      0.49      0.01         0.01
  WS02004404WS02004405        0.01      0.01      0.01      3.99         0.01
  WS02003072WS02003073        0.01      0.01      0.01      2.40         0.01
  YS02001759YS02001757        5.22      5.22      5.40      0.01         0.01
  YS02001762YS02001759        5.12      5.12      5.22      0.01         0.01
  YS02001765YS02001762        4.93      4.93      5.12      0.01         0.01
  YS02001770YS02001767        4.80      4.80      4.82      0.01         0.15
  YS02001774YS02001770        4.71      4.71      5.05      0.01         0.01
  YS02001779YS02001774        4.27      4.27      5.05      0.01         0.01
  YS02001649YS02001757        5.16      5.16      5.40      0.01         0.01
  YS02001767YS02001765        4.82      4.82      4.93      0.01         0.01
  YS02001629YS02163301        4.66      4.66      4.75      0.01         0.01
  YS02001619YS02001622        3.64      3.64      3.71      0.01         0.01
  YS02001622YS02001625        3.71      3.71      4.51      0.01         0.01
  YS02001625YS02001629        3.64      3.64      4.51      0.01         0.01
  YS02163301YS02001633        4.75      4.75      4.96      0.01         0.01
  YS02163601YS02164001        4.93      4.93      5.15      0.01         0.01
  YS02164001YS02001641        4.93      4.93      5.01      0.01         0.01
  YS02001641YS02001644        5.01      5.01      5.02      0.01         0.18
  YS02001647YS02001649        4.48      4.48      5.16      0.01         0.01
  YS02001633YS02163601        4.88      4.88      5.15      0.01         0.01
  YS02001644YS02001647        4.48      4.48      5.02      0.01         0.01
  YS02001745YS02001748        0.01      0.01      2.84      0.01         0.01
  YS02001748YS02001751        3.14      3.14      3.77      0.01         0.01
  YS02001751YS02001754        3.77      3.77      4.35      0.01         0.01
  YS02001754YS02001757        4.48      4.48      5.40      0.01         0.01
  YS02001652YS02001649        4.52      4.52      5.16      0.01         0.01
  YS02001655YS02001652        3.85      3.85      4.44      0.01         0.01
  YS02001658YS02001655        2.90      2.90      3.85      0.01         0.01
  YS02001661YS02001658        0.01      0.01      2.90      0.01         0.01
  YS02001793JiankangQianchi        0.01      0.01      7.82      0.01         0.01
  YS02001757CaochengTiaoxuchi        3.38      3.38      5.40      0.01         0.01
  
  
  ***************
  Pumping Summary
  ***************
  
  ---------------------------------------------------------------------------------------------------------
                                                  Min       Avg       Max     Total     Power    % Time Off
                        Percent   Number of      Flow      Flow      Flow    Volume     Usage    Pump Curve
  Pump                 Utilized   Start-Ups       LPS       LPS       LPS  10^6 ltr     Kw-hr    Low   High
  ---------------------------------------------------------------------------------------------------------
  CC-Pump-1                0.00           0      0.00      0.00      0.00     0.000      0.00    0.0    0.0
  CC-Pump-2                0.00           0      0.00      0.00      0.00     0.000      0.00    0.0    0.0
  JK-Pump-1               34.56          12      0.00    300.00    300.00     2.924     35.63    0.0    0.0
  JK-Pump-2                0.00           0      0.00      0.00      0.00     0.000      0.00    0.0    0.0
  XR-Pump-1              100.00           1      0.00     95.00     95.00     2.679     17.93    0.0    0.0
  XR-Pump-2               94.70           1      0.00     95.00     95.00     2.537     16.51    0.0    0.0
  XR-Pump-3               61.92           3      0.00     95.00     95.00     1.659      9.86    0.0    0.0
  XR-Pump-4                0.00           0      0.00      0.00      0.00     0.000      0.00    0.0    0.0
  
  
  ***************************
  Link Pollutant Load Summary
  ***************************
  
  ------------------------------------------------------------------------------------------
                                 COD            SS            TN            TP         NH4-N
  Link                            kg            kg            kg            kg            kg
  ------------------------------------------------------------------------------------------
  WS02003066WSF200           272.377       457.712        11.442         1.202         6.575
  WS02006287WS02006284       106.132       181.085         6.241         0.722         3.740
  WS02006284WS02006280       106.556       181.768         6.280         0.727         3.765
  WS02006280WS02006229       106.536       181.734         6.279         0.727         3.764
  WS02006229WS02006228       276.622       463.339        11.638         1.220         6.687
  WS02006256WS02006235       161.695       265.614         5.211         0.485         2.857
  WS02006253WS02006251        11.730        21.395         0.333         0.029         0.175
  WS02006252WS02006251         0.000         0.000         0.000         0.000         0.000
  WS02006251WS02006249        12.307        22.335         0.385         0.035         0.208
  WS02006249WS02006248        12.188        22.125         0.378         0.034         0.203
  WS02006248WS02006247        12.533        22.709         0.392         0.036         0.212
  WS02006247WS02006245        14.069        25.169         0.461         0.043         0.251
  WS02006245WS02006243        16.269        28.770         0.539         0.050         0.294
  WS02006243WS02006242        21.376        37.107         0.694         0.064         0.378
  WS02006242WS02006240        30.701        52.123         0.981         0.090         0.533
  WS02006240WS02006239        39.369        65.987         1.274         0.117         0.695
  WS02006239WS02006238        48.546        80.458         1.610         0.150         0.883
  WS02006238WS02006235        54.174        89.191         1.824         0.171         1.003
  WS02006235WS02006234       171.021       283.079         5.433         0.503         2.969
  WS02006234WS02006232       171.469       283.802         5.453         0.505         2.980
  WS02006232WS02006231       170.876       282.839         5.424         0.501         2.963
  WS02006231WS02006230       171.256       283.435         5.438         0.503         2.971
  WS02006230WS02006229       171.263       283.517         5.437         0.503         2.970
  WS02006228WS02006109       275.799       462.086        11.572         1.212         6.646
  WS02006116WS02004401       282.135       472.922        12.103         1.279         6.976
  WS02006115WS02006116       282.876       474.050        12.149         1.284         7.003
  WS02006113WS02006111       282.415       472.737        12.230         1.295         7.059
  WS02006112WS02006115       283.591       475.196        12.199         1.290         7.034
  WS02006111WS02006112       282.262       472.528        12.221         1.294         7.053
  WS02006110WS02006113       282.687       473.180        12.252         1.298         7.073
  WS02006109WS02006110       283.654       474.732        12.335         1.308         7.124
  WS02004411WS02004412       275.031       461.889        11.635         1.224         6.693
  WS02004401WS02004402       281.212       471.464        12.039         1.271         6.937
  WS02004413WS02003067       273.012       458.702        11.480         1.206         6.598
  WS02004412WS02004413       274.046       460.345        11.571         1.217         6.654
  WS02004410WS02004411       275.727       462.971        11.680         1.230         6.720
  WS02004409WS02004410       276.321       463.897        11.721         1.235         6.745
  WS02004407WS02004409       276.787       464.606        11.752         1.238         6.764
  WS02004406WS02004407       276.936       464.807        11.761         1.239         6.769
  WS02004405WS02004406       278.859       467.853        11.917         1.258         6.865
  WS02004404WS02004405       279.733       469.179        11.965         1.263         6.894
  WS02004403WS02004404       279.414       468.647        11.913         1.256         6.860
  WS02004402WS02004403       280.286       470.026        11.976         1.264         6.899
  WS02004139WS02001211      1262.632      2022.758       118.826        14.803        74.116
  WS02004138WS02004139      1268.670      2032.437       119.384        14.873        74.464
  WS02003067WS02003066       272.453       457.830        11.449         1.202         6.579
  WS02001213WS02003059      1296.042      2076.173       122.077        15.211        76.151
  WS02001212WS02001213      1303.788      2088.589       122.797        15.300        76.599
  WS02001211WS02001212      1306.278      2092.575       123.033        15.329        76.746
  WS02003072WS02003073      1667.561      2692.539       143.112        17.613        88.725
  WS02003069WS02003072      1672.722      2700.793       143.600        17.673        89.029
  WS02003060WS02003069      1674.767      2704.056       143.776        17.695        89.138
  WS02003059WS02003060      1292.779      2070.941       121.777        15.173        75.963
  HS02004901HS02004770         2.495         4.507         0.048         0.004         0.022
  HS02004876HS02004881         9.897        17.953         0.301         0.027         0.160
  HS02004870HS02004876         7.691        13.866         0.267         0.025         0.145
  HS02004842HS02004848         1.347         2.345         0.030         0.002         0.014
  HS02004837HS02004842         5.982         9.733         0.497         0.061         0.307
  HS02004830HS02004837        48.464        78.802         4.230         0.523         2.628
  HS02004824HS02004830        49.214        80.002         4.302         0.532         2.673
  HS02004817HS02004824        54.516        89.548         4.441         0.542         2.745
  HS02004770HS02004777         9.618        17.493         0.210         0.014         0.095
  HS02004799HS02004480        42.578        73.656         1.948         0.211         1.122
  HS02004792HS02004799        39.861        68.369         1.945         0.215         1.130
  HS02004788HS02004792        26.442        45.146         1.539         0.176         0.914
  HS02004785HS02004788        11.110        19.892         0.361         0.033         0.191
  HS02004777HS02004785        10.604        19.075         0.316         0.027         0.162
  HS02004480HS02004478        50.525        88.547         2.037         0.215         1.156
  HS02004479HS02004480        12.389        21.976         0.513         0.056         0.299
  HS02004862HS02004870         5.791        10.204         0.228         0.023         0.127
  HS02004848HS02004852         1.567         2.755         0.035         0.002         0.016
  HS02004856HS02004862         3.093         5.667         0.065         0.004         0.030
  HS02004852HS02004856         1.564         2.750         0.035         0.002         0.016
  HS02004802HS02004478        55.910        93.030         4.231         0.511         2.601
  HS02004478WS02006287       106.311       181.378         6.256         0.724         3.750
  HS02004817HS02004807        53.141        87.349         4.310         0.526         2.663
  HS02004807HS02004802        56.645        94.203         4.302         0.520         2.645
  YS02001759YS02001757        89.259       147.009         2.145         0.158         1.086
  YS02001762YS02001759        47.919        79.639         1.308         0.103         0.682
  YS02001765YS02001762        47.539        78.904         1.326         0.105         0.695
  YS02001770YS02001767        45.122        74.916         1.034         0.067         0.509
  YS02001774YS02001770         4.618         7.763         0.116         0.008         0.059
  YS02001779YS02001774         3.566         5.917         0.158         0.016         0.091
  YS02001649YS02001757       128.397       205.586         2.931         0.214         1.426
  YS02001767YS02001765        47.610        78.949         1.344         0.107         0.706
  YS02006561YS02001783       195.719       320.483         5.930         0.532         3.204
  YS02001783YS02001784       195.653       320.391         5.926         0.532         3.202
  YS02001784YS02001785       203.027       332.205         6.639         0.621         3.647
  YS02001788YS02001790       203.708       333.316         6.711         0.630         3.693
  YS02001790YS02001791       204.700       334.912         6.810         0.643         3.755
  YS02001791YS02001793       204.681       334.887         6.809         0.643         3.755
  YS02001910YS02001907        71.261       115.038         3.164         0.321         1.817
  YS02001786YS02001788       203.270       332.604         6.667         0.625         3.665
  YS02001915YS02001910        71.154       114.813         3.123         0.316         1.790
  YS02001918YS02001915        39.815        62.480         2.395         0.276         1.441
  YS02001923YS02001920        19.792        30.434         0.458         0.033         0.230
  YS02001926YS02001923        19.416        29.829         0.419         0.029         0.206
  YS02001929YS02001926        19.128        29.357         0.387         0.024         0.185
  YS02001920YS02001918        39.735        62.352         2.376         0.273         1.429
  YS02001629YS02163301        21.830        35.001         0.503         0.031         0.232
  YS02001619YS02001622        24.997        39.823         0.578         0.035         0.266
  YS02001622YS02001625        24.152        38.591         0.557         0.034         0.256
  YS02001625YS02001629        23.078        36.996         0.531         0.033         0.244
  YS02163301YS02001633        21.780        34.945         0.501         0.031         0.232
  YS02163601YS02164001        62.495        99.315         1.444         0.105         0.706
  YS02164001YS02001641        62.100        98.693         1.423         0.103         0.694
  YS02001641YS02001644        62.490        99.350         1.420         0.102         0.691
  YS02001647YS02001649       104.316       165.650         2.333         0.168         1.137
  YS02006553YS02006556       143.544       234.373         4.687         0.441         2.583
  YS02006556YS02006558       143.524       234.332         4.652         0.436         2.560
  YSB6556YSB1171               6.156        11.039         0.192         0.019         0.107
  YS02001907YS02006553       143.489       234.291         4.687         0.441         2.583
  YS02006558YS02006561       195.721       320.477         5.929         0.532         3.204
  YS02001633YS02163601        63.104       100.201         1.427         0.102         0.692
  YS02001644YS02001647       105.519       167.496         2.350         0.169         1.144
  YS02001745YS02001748        37.170        60.621         1.006         0.074         0.516
  YS02001748YS02001751        36.679        59.907         1.032         0.079         0.536
  YS02001751YS02001754        36.256        59.281         1.068         0.085         0.562
  YS02001754YS02001757        37.224        60.854         1.236         0.107         0.671
  YS02001882YS02001884         0.482         0.754         0.015         0.001         0.008
  YS02001884YS02001887         1.862         3.015         0.052         0.005         0.028
  YS02001890YS02001895        73.130       120.516         1.540         0.120         0.774
  YS02001895YS02001898        73.003       120.334         1.534         0.120         0.771
  YS02001898YS02001901        72.900       120.191         1.531         0.120         0.769
  YS02001901YS02001904        73.003       120.391         1.554         0.123         0.784
  YS02001904YS02001907        73.881       121.840         1.657         0.136         0.849
  YS02001887YS02001890        73.975       121.821         1.604         0.128         0.814
  YS02001652YS02001649        32.169        52.289         0.796         0.060         0.381
  YS02001655YS02001652        33.110        53.738         0.823         0.062         0.394
  YS02001658YS02001655        32.682        52.958         0.723         0.048         0.328
  YS02001661YS02001658        33.506        54.151         0.745         0.050         0.337
  YS02001664YS02001661        33.917        54.680         0.757         0.050         0.343
  YSB1154YSB6556               5.639        10.216         0.129         0.011         0.067
  YSB1174YSB1171               4.337         7.902         0.137         0.014         0.076
  YSB1171HS02004479           12.273        21.801         0.501         0.055         0.291
  HS02004881HS02006253        11.135        20.296         0.324         0.028         0.171
  YS02001793JiankangQianchi       207.090       338.923         6.872         0.648         3.787
  YS02001757CaochengTiaoxuchi       223.930       366.023         5.232         0.384         2.594
  WSF200WS02003060           271.972       457.080        11.420         1.199         6.562
  1                         1673.854      2702.632       143.784        17.698        89.148
  CC-Pump-1                    0.000         0.000         0.000         0.000         0.000
  CC-Pump-2                    0.000         0.000         0.000         0.000         0.000
  JK-Pump-1                  191.689       315.048         6.150         0.572         3.369
  JK-Pump-2                    0.000         0.000         0.000         0.000         0.000
  XR-Pump-1                  481.772       771.756        45.382         5.655        28.310
  XR-Pump-2                  474.731       760.491        44.706         5.570        27.887
  XR-Pump-3                  314.908       504.585        29.551         3.679        18.425
  XR-Pump-4                    0.000         0.000         0.000         0.000         0.000
  

  Analysis begun on:  Sat Jul 10 21:40:43 2021
  Analysis ended on:  Sat Jul 10 21:40:44 2021
  Total elapsed time: 00:00:01