
  EPA STORM WATER MANAGEMENT MODEL - VERSION 5.1 (Build 5.3.0.dev0)
  --------------------------------------------------------------

  WARNING 04: minimum elevation drop used for Conduit WS02004404WS02004405
  WARNING 03: negative offset ignored for Link YS02001904YS02001907
  
  *********************************************************
  NOTE: The summary statistics displayed in this report are
  based on results found at every computational time step,  
  not just on results from each reporting time step.
  *********************************************************
  
  ****************
  Analysis Options
  ****************
  Flow Units ............... LPS
  Process Models:
    Rainfall/Runoff ........ YES
    RDII ................... NO
    Snowmelt ............... NO
    Groundwater ............ NO
    Flow Routing ........... YES
    Ponding Allowed ........ NO
    Water Quality .......... YES
  Infiltration Method ...... HORTON
  Flow Routing Method ...... DYNWAVE
  Surcharge Method ......... EXTRAN
  Starting Date ............ 08/28/2015 08:00:00
  Ending Date .............. 08/28/2015 15:50:00
  Antecedent Dry Days ...... 8.0
  Report Time Step ......... 00:01:00
  Wet Time Step ............ 00:01:00
  Dry Time Step ............ 00:01:00
  Routing Time Step ........ 5.00 sec
  Variable Time Step ....... YES
  Maximum Trials ........... 8
  Number of Threads ........ 4
  Head Tolerance ........... 0.001500 m
  
  
  **************************        Volume         Depth
  Runoff Quantity Continuity     hectare-m            mm
  **************************     ---------       -------
  Total Precipitation ......         0.567         1.242
  Evaporation Loss .........         0.000         0.000
  Infiltration Loss ........         0.141         0.309
  Surface Runoff ...........         0.213         0.467
  Final Storage ............         0.213         0.466
  Continuity Error (%) .....        -0.024
  
  
  **************************           COD            SS            TN            TP         NH4-N
  Runoff Quality Continuity             kg            kg            kg            kg            kg
  **************************    ----------    ----------    ----------    ----------    ----------
  Initial Buildup ..........     41378.656     70582.865      1804.177       168.684      1032.807
  Surface Buildup ..........        13.971        11.863         4.084         0.383         2.429
  Wet Deposition ...........         0.000         0.000         0.000         0.000         0.000
  Sweeping Removal .........         0.000         0.000         0.000         0.000         0.000
  Infiltration Loss ........         1.508         2.174         0.037         0.002         0.017
  BMP Removal ..............         0.000         0.000         0.000         0.000         0.000
  Surface Runoff ...........        53.689        75.913         1.305         0.077         0.605
  Remaining Buildup ........     41337.412     70516.617      1806.919       168.988      1034.614
  Continuity Error (%) .....         0.000         0.000         0.000         0.000         0.000
  
  
  **************************        Volume        Volume
  Flow Routing Continuity        hectare-m      10^6 ltr
  **************************     ---------     ---------
  Dry Weather Inflow .......         0.616         6.165
  Wet Weather Inflow .......         0.213         2.132
  Groundwater Inflow .......         0.000         0.000
  RDII Inflow ..............         0.000         0.000
  External Inflow ..........         0.102         1.024
  External Outflow .........         0.725         7.255
  Flooding Loss ............         0.008         0.080
  Evaporation Loss .........         0.000         0.000
  Exfiltration Loss ........         0.000         0.000
  Initial Stored Volume ....         0.076         0.761
  Final Stored Volume ......         0.275         2.748
  Continuity Error (%) .....        -0.015
  
  
  **************************           COD            SS            TN            TP         NH4-N
  Quality Routing Continuity            kg            kg            kg            kg            kg
  **************************    ----------    ----------    ----------    ----------    ----------
  Dry Weather Inflow .......      1541.201      2465.922       147.955        18.494        92.472
  Wet Weather Inflow .......        53.654        75.867         1.304         0.077         0.605
  Groundwater Inflow .......         0.000         0.000         0.000         0.000         0.000
  RDII Inflow ..............         0.000         0.000         0.000         0.000         0.000
  External Inflow ..........       183.418       293.469        17.608         2.201        11.005
  External Outflow .........      1428.860      2284.575       135.995        16.975        84.932
  Flooding Loss ............         4.406         6.785         0.321         0.038         0.196
  Exfiltration Loss ........         0.000         0.000         0.000         0.000         0.000
  Mass Reacted .............         0.000         0.000         0.000         0.000         0.000
  Initial Stored Mass ......         0.000         0.000         0.000         0.000         0.000
  Final Stored Mass ........       336.083       529.911        29.786         3.667        18.481
  Continuity Error (%) .....         0.502         0.493         0.458         0.448         0.454
  
  
  *************************
  Highest Continuity Errors
  *************************
  Node HS02004842 (55.79%)
  Node YS02001774 (52.25%)
  Node YS02001884 (48.96%)
  Node HS02004901 (20.75%)
  Node YSB1171 (20.59%)
  
  
  ***************************
  Time-Step Critical Elements
  ***************************
  Link WS02006280WS02006229 (61.44%)
  Link WS02006238WS02006235 (18.97%)
  
  
  ********************************
  Highest Flow Instability Indexes
  ********************************
  Link YS02001754YS02001757 (13)
  Link YS02001649YS02001757 (13)
  Link YS02001652YS02001649 (12)
  Link YS02001767YS02001765 (12)
  Link YS02001762YS02001759 (12)
  
  
  *************************
  Routing Time Step Summary
  *************************
  Minimum Time Step           :     0.56 sec
  Average Time Step           :     4.09 sec
  Maximum Time Step           :     5.00 sec
  Percent in Steady State     :    -0.00
  Average Iterations per Step :     2.08
  Percent Not Converging      :     0.33
  
  
  ***************************
  Subcatchment Runoff Summary
  ***************************
  
  ------------------------------------------------------------------------------------------------------------------------------
                            Total      Total      Total      Total     Imperv       Perv      Total       Total     Peak  Runoff
                           Precip      Runon       Evap      Infil     Runoff     Runoff     Runoff      Runoff   Runoff   Coeff
  Subcatchment                 mm         mm         mm         mm         mm         mm         mm    10^6 ltr      LPS
  ------------------------------------------------------------------------------------------------------------------------------
  sub0                       1.24       0.00       0.00       0.09       1.11       0.00       1.11        0.00     0.31   0.894
  sub1                       1.24       0.00       0.00       0.14       1.03       0.00       1.03        0.01     1.43   0.826
  sub2                       1.24       0.00       0.00       0.46       0.71       0.00       0.71        0.01     1.21   0.574
  sub3                       1.24       0.00       0.00       0.46       0.69       0.00       0.69        0.02     2.37   0.554
  sub4                       1.24       0.00       0.00       0.14       0.93       0.00       0.93        0.02     2.53   0.747
  sub5                       1.24       0.00       0.00       0.09       1.07       0.00       1.07        0.01     2.54   0.863
  sub7                       1.24       0.00       0.00       0.11       1.07       0.00       1.07        0.00     0.96   0.863
  sub8                       1.24       0.00       0.00       0.11       1.06       0.00       1.06        0.01     1.66   0.857
  sub9                       1.24       0.00       0.00       0.11       1.06       0.00       1.06        0.01     1.22   0.856
  sub10                      1.24       0.00       0.00       0.10       1.07       0.00       1.07        0.01     2.57   0.858
  sub11                      1.24       0.00       0.00       0.10       1.08       0.00       1.08        0.01     3.14   0.869
  sub12                      1.24       0.00       0.00       0.16       1.03       0.00       1.03        0.01     2.83   0.833
  sub14                      1.24       0.00       0.00       0.11       1.06       0.00       1.06        0.01     2.37   0.855
  sub15                      1.24       0.00       0.00       0.37       0.81       0.00       0.81        0.01     3.19   0.656
  sub16                      1.24       0.00       0.00       0.41       0.79       0.00       0.79        0.01     2.44   0.639
  sub17                      1.24       0.00       0.00       0.40       0.80       0.00       0.80        0.01     1.96   0.648
  sub22                      1.24       0.00       0.00       0.53       0.67       0.00       0.67        0.04    10.80   0.539
  sub23                      1.24       0.00       0.00       0.46       0.74       0.00       0.74        0.04     9.27   0.597
  sub60                      1.24       0.00       0.00       0.15       0.48       0.00       0.48        0.15     9.98   0.387
  sub61                      1.24       0.00       0.00       0.21       0.57       0.00       0.57        0.17    13.29   0.455
  sub62                      1.24       0.00       0.00       0.10       0.59       0.00       0.59        0.18    13.36   0.475
  sub63                      1.24       0.00       0.00       0.36       0.52       0.00       0.52        0.16    12.68   0.421
  sub64                      1.24       0.00       0.00       0.19       0.46       0.00       0.46        0.14     9.44   0.367
  sub65                      1.24       0.00       0.00       0.16       0.46       0.00       0.46        0.14     9.53   0.369
  sub66                      1.24       0.00       0.00       0.36       0.41       0.00       0.41        0.13     8.82   0.330
  sub67                      1.24       0.00       0.00       0.10       0.71       0.00       0.71        0.22    18.08   0.569
  sub68                      1.24       0.00       0.00       0.17       0.62       0.00       0.62        0.19    14.90   0.496
  sub69                      1.24       0.00       0.00       0.19       0.73       0.00       0.73        0.17    15.79   0.589
  sub70                      1.24       0.75       0.00       0.68       0.72       0.00       0.72        0.16     9.90   0.360
  sub71                      1.24       0.00       0.00       0.10       0.54       0.00       0.54        0.13     9.13   0.439
  sub72                      1.24       0.00       0.00       0.09       0.32       0.00       0.32        0.06     3.87   0.256
  1                          1.24       0.70       0.00       0.66       0.64       0.00       0.64        0.15     8.49   0.330
  2                          1.24       0.00       0.00       0.93       0.23       0.00       0.23        0.09     9.05   0.183
  
  
  ****************************
  Subcatchment Washoff Summary
  ****************************
  
  ------------------------------------------------------------------------------------------
                                 COD            SS            TN            TP         NH4-N
  Subcatchment                    kg            kg            kg            kg            kg
  ------------------------------------------------------------------------------------------
  sub0                         0.082         0.132         0.001         0.000         0.001
  sub1                         0.316         0.502         0.007         0.000         0.003
  sub2                         0.182         0.280         0.005         0.000         0.002
  sub3                         0.414         0.623         0.011         0.001         0.005
  sub4                         0.656         1.012         0.016         0.001         0.008
  sub5                         0.692         1.081         0.013         0.001         0.006
  sub7                         0.183         0.301         0.004         0.000         0.002
  sub8                         0.286         0.477         0.007         0.000         0.003
  sub9                         0.233         0.383         0.005         0.000         0.002
  sub10                        0.604         0.960         0.012         0.001         0.006
  sub11                        0.639         1.040         0.013         0.001         0.006
  sub12                        0.543         0.879         0.010         0.001         0.005
  sub14                        0.481         0.781         0.010         0.001         0.005
  sub15                        0.535         0.830         0.012         0.001         0.006
  sub16                        0.361         0.567         0.008         0.001         0.004
  sub17                        0.319         0.493         0.007         0.000         0.003
  sub22                        1.589         2.425         0.036         0.003         0.016
  sub23                        1.084         1.730         0.029         0.002         0.013
  sub60                        3.247         4.475         0.085         0.004         0.040
  sub61                        4.369         6.011         0.100         0.006         0.048
  sub62                        4.682         6.568         0.117         0.006         0.056
  sub63                        3.516         4.874         0.097         0.006         0.042
  sub64                        3.459         4.594         0.079         0.005         0.037
  sub65                        3.550         4.733         0.082         0.005         0.038
  sub66                        2.384         3.247         0.068         0.004         0.031
  sub67                        7.146         9.935         0.146         0.009         0.070
  sub68                        5.172         7.240         0.125         0.007         0.059
  sub69                        5.334         7.604         0.122         0.007         0.057
  sub70                        5.923         8.486         0.158         0.010         0.070
  sub71                        3.119         4.405         0.085         0.004         0.040
  sub72                        1.396         1.798         0.033         0.002         0.016
  1                            1.883         2.728         0.055         0.003         0.024
  2                            0.566         0.808         0.025         0.001         0.010
  ------------------------------------------------------------------------------------------
  System                      64.946        92.003         1.585         0.094         0.732
  
  
  ******************
  Node Depth Summary
  ******************
  
  ---------------------------------------------------------------------------------
                                 Average  Maximum  Maximum  Time of Max    Reported
                                   Depth    Depth      HGL   Occurrence   Max Depth
  Node                 Type       Meters   Meters   Meters  days hr:min      Meters
  ---------------------------------------------------------------------------------
  WS02001211           JUNCTION     0.62     0.69     5.53     0  02:38        0.69
  WS02001212           JUNCTION     0.34     0.40     5.46     0  02:39        0.40
  WS02001213           JUNCTION     0.52     0.60     5.36     0  03:42        0.60
  WS02003069           JUNCTION     0.28     0.35     4.93     0  03:53        0.35
  WS02003072           JUNCTION     0.35     0.42     4.79     0  03:54        0.42
  WS02003073           JUNCTION     0.20     0.25     4.31     0  03:55        0.25
  WS02003060           JUNCTION     0.26     0.32     5.25     0  03:53        0.32
  WS02003066           JUNCTION     0.09     0.17     5.72     0  03:23        0.17
  WS02003059           JUNCTION     0.58     0.65     5.34     0  03:43        0.65
  WS02003067           JUNCTION     0.27     0.45     5.77     0  03:22        0.45
  WS02004401           JUNCTION     0.34     0.51     6.51     0  03:17        0.51
  WS02004402           JUNCTION     0.38     0.55     6.51     0  03:17        0.55
  WS02004403           JUNCTION     0.40     0.58     6.51     0  03:16        0.58
  WS02004404           JUNCTION     0.47     0.66     6.51     0  03:16        0.65
  WS02004406           JUNCTION     0.49     0.67     6.50     0  03:14        0.67
  WS02004409           JUNCTION     0.15     0.30     6.07     0  03:20        0.30
  WS02004410           JUNCTION     0.18     0.33     6.05     0  03:21        0.33
  WS02004411           JUNCTION     0.20     0.36     6.04     0  03:21        0.36
  WS02004412           JUNCTION     0.22     0.39     6.03     0  03:22        0.39
  WS02004413           JUNCTION     0.34     0.56     6.03     0  03:22        0.56
  WS02004405           JUNCTION     0.47     0.65     6.50     0  03:15        0.65
  WS02006109           JUNCTION     0.41     0.61     7.23     0  03:11        0.61
  WS02006110           JUNCTION     0.44     0.63     7.22     0  03:11        0.62
  WS02006111           JUNCTION     0.08     0.17     6.88     0  03:12        0.17
  WS02006112           JUNCTION     0.48     0.65     6.54     0  03:12        0.65
  WS02006113           JUNCTION     0.12     0.25     7.15     0  03:11        0.25
  WS02006115           JUNCTION     0.24     0.38     6.52     0  03:17        0.38
  WS02006116           JUNCTION     0.31     0.48     6.52     0  03:18        0.48
  WS02006230           JUNCTION     0.30     0.52     7.26     0  03:10        0.50
  WS02006231           JUNCTION     0.10     0.38     7.50     0  03:10        0.38
  WS02006232           JUNCTION     0.17     0.51     7.55     0  03:09        0.51
  WS02006234           JUNCTION     0.09     0.41     7.57     0  03:09        0.39
  WS02006235           JUNCTION     0.11     0.44     7.61     0  03:09        0.43
  WS02006238           JUNCTION     0.13     0.46     7.61     0  03:09        0.45
  WS02006240           JUNCTION     0.07     0.32     7.62     0  03:10        0.32
  WS02006242           JUNCTION     0.10     0.35     7.62     0  03:10        0.35
  WS02006243           JUNCTION     0.04     0.21     7.63     0  03:10        0.21
  WS02006245           JUNCTION     0.04     0.15     7.64     0  03:11        0.15
  WS02006247           JUNCTION     0.05     0.14     7.64     0  03:11        0.14
  WS02006248           JUNCTION     0.03     0.06     7.65     0  03:12        0.06
  WS02006249           JUNCTION     0.05     0.09     7.69     0  02:33        0.09
  WS02006239           JUNCTION     0.09     0.39     7.60     0  03:09        0.39
  WS02006251           JUNCTION     0.03     0.07     7.74     0  02:31        0.07
  WS02006252           JUNCTION     0.00     0.00     8.24     0  00:00        0.00
  WS02006253           JUNCTION     0.06     0.11     7.76     0  02:30        0.11
  WS02006256           JUNCTION     0.46     2.35     9.28     0  03:03        2.35
  WS02004138           JUNCTION     0.14     0.17     7.42     0  06:23        0.17
  WS02004139           JUNCTION     0.56     0.63     5.54     0  03:51        0.63
  WS02004407           JUNCTION     0.07     0.15     6.46     0  03:15        0.15
  WS02006228           JUNCTION     0.38     0.59     7.24     0  03:10        0.59
  WS02006229           JUNCTION     0.34     0.55     7.24     0  03:10        0.55
  WS02006280           JUNCTION     0.04     0.07     8.34     0  02:29        0.07
  WS02006284           JUNCTION     0.32     0.37     8.77     0  02:29        0.37
  WS02006287           JUNCTION     0.05     0.10     9.05     0  02:28        0.10
  WSF200               JUNCTION     0.06     0.13     5.37     0  03:23        0.13
  HS02004901           JUNCTION     0.08     0.13     9.96     0  02:30        0.13
  HS02004881           JUNCTION     0.00     0.01     9.04     0  02:29        0.01
  HS02004876           JUNCTION     0.02     0.05     9.08     0  02:30        0.05
  HS02004870           JUNCTION     0.01     0.01     9.30     0  02:27        0.01
  HS02004862           JUNCTION     0.01     0.02     9.40     0  02:28        0.02
  HS02004856           JUNCTION     0.06     0.08     9.51     0  02:26        0.08
  HS02004852           JUNCTION     0.00     0.01     9.52     0  02:27        0.01
  HS02004848           JUNCTION     0.00     0.01     9.61     0  02:19        0.01
  HS02004842           JUNCTION     0.32     0.34     9.61     0  02:18        0.34
  HS02004837           JUNCTION     0.02     0.03     9.61     0  02:19        0.03
  HS02004830           JUNCTION     0.03     0.04     9.51     0  02:19        0.04
  HS02004824           JUNCTION     0.01     0.02     9.42     0  02:22        0.02
  HS02004817           JUNCTION     0.39     0.45     9.29     0  02:27        0.45
  HS02004807           JUNCTION     0.09     0.12     9.29     0  02:27        0.12
  HS02004802           JUNCTION     0.12     0.16     9.29     0  02:28        0.16
  HS02004799           JUNCTION     0.08     0.13     9.34     0  02:27        0.13
  HS02004792           JUNCTION     0.01     0.03     9.56     0  02:26        0.03
  HS02004788           JUNCTION     0.01     0.03     9.92     0  02:30        0.03
  HS02004785           JUNCTION     0.02     0.05     9.95     0  02:30        0.05
  HS02004777           JUNCTION     0.10     0.16     9.96     0  02:29        0.16
  HS02004770           JUNCTION     0.07     0.13     9.96     0  02:29        0.13
  HS02004480           JUNCTION     0.04     0.09     9.33     0  02:28        0.09
  HS02004479           JUNCTION     0.07     0.13     9.33     0  02:28        0.13
  HS02004478           JUNCTION     0.04     0.06     9.29     0  02:28        0.06
  YS02001745           JUNCTION     0.03     0.04     7.56     0  03:01        0.04
  YS02001748           JUNCTION     0.05     0.14     7.22     0  07:49        0.14
  YS02001751           JUNCTION     0.16     0.34     7.22     0  07:49        0.34
  YS02001754           JUNCTION     0.34     0.61     7.22     0  07:48        0.61
  YS02001762           JUNCTION     0.50     0.82     7.22     0  07:48        0.82
  YS02001765           JUNCTION     0.46     0.77     7.22     0  07:49        0.77
  YS02001767           JUNCTION     0.43     0.73     7.22     0  07:49        0.73
  YS02001770           JUNCTION     0.43     0.72     7.22     0  07:49        0.72
  YS02001774           JUNCTION     0.48     0.80     7.22     0  07:49        0.80
  YS02001779           JUNCTION     0.28     0.53     7.22     0  07:49        0.53
  YS02001882           JUNCTION     0.13     0.20     6.91     0  03:03        0.20
  YS02001884           JUNCTION     0.21     0.30     6.91     0  03:02        0.30
  YS02001759           JUNCTION     0.53     0.85     7.22     0  07:49        0.85
  YS02001887           JUNCTION     0.29     0.37     6.91     0  03:02        0.37
  YS02001890           JUNCTION     0.32     0.41     6.91     0  03:03        0.41
  YS02001898           JUNCTION     0.10     0.17     6.90     0  03:04        0.17
  YS02001901           JUNCTION     0.20     0.29     6.90     0  03:04        0.29
  YS02001904           JUNCTION     0.19     0.27     6.90     0  03:04        0.27
  YS02001907           JUNCTION     0.50     0.61     6.90     0  03:04        0.61
  YS02001910           JUNCTION     0.29     0.39     6.90     0  03:04        0.39
  YS02001915           JUNCTION     0.12     0.18     6.90     0  03:03        0.18
  YS02001918           JUNCTION     0.04     0.04     7.11     0  03:07        0.04
  YS02001619           JUNCTION     0.13     0.29     7.22     0  07:49        0.29
  YS02001629           JUNCTION     0.38     0.67     7.22     0  07:49        0.67
  YS02001641           JUNCTION     0.47     0.78     7.22     0  07:50        0.78
  YS02001644           JUNCTION     0.48     0.79     7.22     0  07:50        0.79
  YS02001652           JUNCTION     0.35     0.62     7.22     0  07:49        0.62
  YS02001655           JUNCTION     0.18     0.37     7.22     0  07:49        0.37
  YS02001920           JUNCTION     0.11     0.12     7.13     0  03:06        0.12
  YS02001923           JUNCTION     0.02     0.03     7.29     0  03:04        0.03
  YS02001926           JUNCTION     0.07     0.08     7.53     0  03:04        0.08
  YS02001929           JUNCTION     0.02     0.03     7.73     0  03:01        0.03
  YS02001658           JUNCTION     0.04     0.08     7.22     0  07:50        0.08
  YS02001661           JUNCTION     0.09     0.12     7.52     0  02:53        0.12
  YS02001664           JUNCTION     0.03     0.05     7.97     0  02:53        0.05
  YS02001622           JUNCTION     0.14     0.31     7.22     0  07:50        0.31
  YS02001633           JUNCTION     0.46     0.76     7.22     0  07:49        0.76
  YS02001649           JUNCTION     0.51     0.83     7.22     0  07:49        0.83
  YS02001757           JUNCTION     0.62     0.96     7.22     0  07:49        0.96
  YS02001895           JUNCTION     0.10     0.16     6.91     0  03:03        0.16
  YS02001625           JUNCTION     0.37     0.61     7.22     0  07:50        0.61
  YS02163301           JUNCTION     0.41     0.70     7.22     0  07:49        0.70
  YS02163601           JUNCTION     0.51     0.82     7.22     0  07:49        0.82
  YS02164001           JUNCTION     0.45     0.76     7.22     0  07:50        0.76
  YS02001647           JUNCTION     0.33     0.61     7.22     0  07:48        0.61
  YSB1154              JUNCTION     0.20     0.27     9.33     0  02:27        0.27
  YSB6556              JUNCTION     0.10     0.16     9.33     0  02:27        0.16
  YSB1174              JUNCTION     0.16     0.22     9.33     0  02:28        0.22
  YSB1171              JUNCTION     0.35     0.43     9.33     0  02:28        0.43
  YS02006553           JUNCTION     0.50     0.62     6.90     0  03:04        0.62
  YS02006561           JUNCTION     0.05     0.09     6.75     0  03:04        0.09
  YS02006556           JUNCTION     0.47     0.59     6.90     0  03:04        0.59
  YS02006558           JUNCTION     0.52     0.63     6.90     0  03:04        0.63
  YS02001783           JUNCTION     0.08     0.14     6.28     0  03:05        0.14
  YS02001784           JUNCTION     0.12     0.18     6.25     0  03:05        0.18
  YS02001786           JUNCTION     0.10     0.15     6.18     0  03:05        0.15
  YS02001788           JUNCTION     0.07     0.11     6.08     0  03:06        0.11
  YS02001790           JUNCTION     0.08     0.13     5.77     0  03:06        0.13
  YS02001791           JUNCTION     0.06     0.09     5.56     0  03:06        0.09
  YS02001793           JUNCTION     0.10     0.54     5.37     0  04:18        0.54
  WSC                  OUTFALL      0.20     0.25     0.92     0  03:55        0.24
  JK-storage           STORAGE      3.67     4.56     5.36     0  04:19        4.56
  CC-storage           STORAGE      0.07     0.22     7.22     0  07:50        0.22
  XR-storage           STORAGE      6.60     7.00     5.00     0  03:31        7.00
  
  
  *******************
  Node Inflow Summary
  *******************
  
  -------------------------------------------------------------------------------------------------
                                  Maximum  Maximum                  Lateral       Total        Flow
                                  Lateral    Total  Time of Max      Inflow      Inflow     Balance
                                   Inflow   Inflow   Occurrence      Volume      Volume       Error
  Node                 Type           LPS      LPS  days hr:min    10^6 ltr    10^6 ltr     Percent
  -------------------------------------------------------------------------------------------------
  WS02001211           JUNCTION      7.35   294.53     0  06:24       0.207        5.83       0.549
  WS02001212           JUNCTION      0.00   292.67     0  02:38           0         5.8       0.271
  WS02001213           JUNCTION      0.00   292.66     0  02:39           0        5.79       0.307
  WS02003069           JUNCTION      0.32   384.89     0  03:53     0.00902        7.26       0.213
  WS02003072           JUNCTION      0.00   383.15     0  03:54           0        7.25       0.294
  WS02003073           JUNCTION      1.82   382.26     0  03:54      0.0514        7.28       0.307
  WS02003060           JUNCTION     16.53   385.93     0  03:52       0.466        7.27       0.207
  WS02003066           JUNCTION      0.00   117.25     0  03:22           0        1.07       0.144
  WS02003059           JUNCTION      0.00   292.81     0  03:47           0        5.77       0.549
  WS02003067           JUNCTION      0.00   117.29     0  03:22           0        1.07       0.422
  WS02004401           JUNCTION      0.00   167.86     0  03:13           0        1.18       0.919
  WS02004402           JUNCTION      0.00   157.38     0  03:13           0        1.17       0.941
  WS02004403           JUNCTION      0.00   150.31     0  03:13           0        1.16       0.914
  WS02004404           JUNCTION      0.16   144.38     0  03:14     0.00457        1.15       0.913
  WS02004406           JUNCTION      0.00   135.90     0  03:14           0        1.13       1.903
  WS02004409           JUNCTION      0.00   129.36     0  03:15           0        1.11       0.303
  WS02004410           JUNCTION      0.00   126.38     0  03:15           0        1.11       0.473
  WS02004411           JUNCTION      0.00   122.10     0  03:16           0         1.1       0.585
  WS02004412           JUNCTION      0.00   119.85     0  03:20           0        1.09       0.770
  WS02004413           JUNCTION      0.00   117.96     0  03:21           0        1.09       1.346
  WS02004405           JUNCTION      0.04   156.96     0  03:16     0.00107        1.14       1.010
  WS02006109           JUNCTION      1.23   202.67     0  03:10      0.0347        1.23       0.884
  WS02006110           JUNCTION      0.00   193.62     0  03:11           0        1.22       0.775
  WS02006111           JUNCTION      0.00   184.42     0  03:11           0        1.21       0.067
  WS02006112           JUNCTION      1.96   183.26     0  03:12      0.0069        1.21       1.241
  WS02006113           JUNCTION      0.00   187.56     0  03:11           0        1.21       0.160
  WS02006115           JUNCTION      0.00   179.31     0  03:12           0         1.2       0.641
  WS02006116           JUNCTION      0.00   175.38     0  03:12           0        1.19       0.686
  WS02006230           JUNCTION     10.28   189.10     0  03:10        0.29       0.831       0.502
  WS02006231           JUNCTION      0.00   186.12     0  03:09           0       0.534      -1.317
  WS02006232           JUNCTION      0.00   192.61     0  03:09           0       0.547       2.518
  WS02006234           JUNCTION      0.00   196.53     0  03:09           0       0.537      -1.862
  WS02006235           JUNCTION      0.00   288.67     0  06:58           0       0.719       1.819
  WS02006238           JUNCTION      0.00   178.95     0  03:04           0       0.342      -0.214
  WS02006240           JUNCTION      0.00    80.48     0  07:00           0       0.203       0.198
  WS02006242           JUNCTION      0.00    69.37     0  03:06           0       0.132       0.713
  WS02006243           JUNCTION      0.00    34.74     0  03:08           0      0.0778       2.407
  WS02006245           JUNCTION      0.00    15.56     0  05:11           0      0.0553       2.965
  WS02006247           JUNCTION      0.00    12.26     0  03:10           0      0.0445       0.657
  WS02006248           JUNCTION      0.00     6.79     0  02:34           0      0.0401       0.115
  WS02006249           JUNCTION      0.00     6.83     0  02:31           0      0.0404       0.832
  WS02006239           JUNCTION      0.00   119.98     0  06:59           0       0.276       0.307
  WS02006251           JUNCTION      0.08     6.85     0  02:30     0.00217      0.0405       0.152
  WS02006252           JUNCTION      0.00     0.00     0  00:00           0           0       0.000 ltr
  WS02006253           JUNCTION      0.31     6.78     0  02:29    0.000899      0.0385       0.431
  WS02006256           JUNCTION      0.00   300.00     0  03:03           0        0.59      -1.121
  WS02004138           JUNCTION      0.00   285.00     0  02:19           0        5.65       0.056
  WS02004139           JUNCTION      0.32   286.24     0  06:23     0.00905        5.66       0.536
  WS02004407           JUNCTION      0.00   130.87     0  03:14           0        1.11       0.140
  WS02006228           JUNCTION      0.00   207.51     0  03:10           0         1.2       0.550
  WS02006229           JUNCTION      0.00   213.21     0  03:10           0        1.21       0.739
  WS02006280           JUNCTION      0.00    44.34     0  02:29           0       0.381       0.021
  WS02006284           JUNCTION      0.10    44.35     0  02:28      0.0027       0.382       0.309
  WS02006287           JUNCTION      0.00    44.26     0  02:28           0        0.38       0.181
  WSF200               JUNCTION      0.00   117.23     0  03:23           0        1.07       0.094
  HS02004901           JUNCTION      2.44     2.44     0  02:10     0.00831     0.00844      26.176
  HS02004881           JUNCTION      0.96     6.61     0  02:29     0.00361      0.0376       0.148
  HS02004876           JUNCTION      1.43     5.99     0  02:26     0.00682      0.0345       1.456
  HS02004870           JUNCTION      1.66     4.70     0  02:26      0.0068      0.0278       0.366
  HS02004862           JUNCTION      1.41     3.33     0  02:25      0.0123      0.0211       0.760
  HS02004856           JUNCTION      1.22     1.98     0  02:22     0.00511      0.0103      16.151
  HS02004852           JUNCTION      0.00     0.92     0  02:24           0     0.00521       0.771
  HS02004848           JUNCTION      2.37     2.37     0  02:23      0.0155      0.0155       0.238
  HS02004842           JUNCTION      0.00     4.49     0  00:03           0      0.0233     126.217
  HS02004837           JUNCTION      8.92    10.37     0  02:17       0.191       0.201       0.393
  HS02004830           JUNCTION      0.15    10.51     0  02:19     0.00423       0.191       0.645
  HS02004824           JUNCTION      2.58    13.05     0  02:22      0.0208       0.211       0.255
  HS02004817           JUNCTION      0.60    13.65     0  02:22      0.0169       0.227       7.898
  HS02004807           JUNCTION      3.14    16.36     0  02:21      0.0125       0.223       1.924
  HS02004802           JUNCTION      0.00    16.21     0  02:23           0       0.219       1.883
  HS02004799           JUNCTION      2.37    24.04     0  02:26      0.0101       0.159       1.408
  HS02004792           JUNCTION     11.08    21.99     0  02:26      0.0502       0.149       0.281
  HS02004788           JUNCTION      4.86    13.05     0  02:29      0.0611         0.1       0.385
  HS02004785           JUNCTION      0.15     8.85     0  02:27     0.00423      0.0412       1.136
  HS02004777           JUNCTION      0.03     9.20     0  02:20    0.000846      0.0413      14.242
  HS02004770           JUNCTION      9.27    11.31     0  02:11      0.0354       0.042       7.935
  HS02004480           JUNCTION      0.00    28.20     0  02:28           0       0.178       0.334
  HS02004479           JUNCTION      0.00     4.19     0  02:28           0      0.0312       2.376
  HS02004478           JUNCTION      0.00    44.26     0  02:28           0       0.381       0.207
  YS02001745           JUNCTION      9.99     9.99     0  03:01       0.146       0.146       0.129
  YS02001748           JUNCTION      0.04    10.03     0  03:01     0.00127       0.147       0.845
  YS02001751           JUNCTION      0.01    10.04     0  03:01     0.00031       0.146       5.130
  YS02001754           JUNCTION      0.26    18.29     0  06:02     0.00733       0.157      10.324
  YS02001762           JUNCTION      0.00    15.34     0  03:26           0       0.137      15.172
  YS02001765           JUNCTION      0.00    16.38     0  03:26           0       0.138      16.597
  YS02001767           JUNCTION      0.54    17.89     0  03:21      0.0151       0.152      22.022
  YS02001770           JUNCTION     13.51    16.60     0  03:21       0.185       0.191      14.040
  YS02001774           JUNCTION      0.00     8.23     0  02:46           0      0.0389     109.404
  YS02001779           JUNCTION      0.01     4.16     0  03:12    0.000141       0.013     209.143
  YS02001882           JUNCTION      0.00     1.28     0  02:08           0      0.0017     172.716
  YS02001884           JUNCTION      0.00     3.88     0  02:11           0     0.00723      95.918
  YS02001759           JUNCTION     13.33    27.50     0  03:28       0.175       0.283       7.813
  YS02001887           JUNCTION     18.53    18.53     0  02:50       0.231       0.233       2.514
  YS02001890           JUNCTION      0.00    18.30     0  02:59           0        0.22       2.965
  YS02001898           JUNCTION      0.00    18.19     0  03:00           0       0.212       0.612
  YS02001901           JUNCTION      0.00    18.21     0  03:02           0       0.212       1.987
  YS02001904           JUNCTION      0.00    18.16     0  03:03           0       0.212       1.860
  YS02001907           JUNCTION      0.00    34.01     0  03:05           0       0.474       4.359
  YS02001910           JUNCTION      0.00    15.93     0  03:03           0       0.271       3.199
  YS02001915           JUNCTION      9.15    15.91     0  03:01       0.129       0.274       1.072
  YS02001918           JUNCTION      0.00     6.81     0  03:06           0       0.146       0.349
  YS02001619           JUNCTION      8.82     8.82     0  03:01       0.126       0.126       2.361
  YS02001629           JUNCTION      0.00    10.57     0  03:23           0      0.0932      14.878
  YS02001641           JUNCTION      0.00    21.15     0  03:21           0       0.172      11.149
  YS02001644           JUNCTION      9.48    29.78     0  03:21        0.14       0.288       7.928
  YS02001652           JUNCTION      0.00    12.97     0  03:26           0       0.153      10.397
  YS02001655           JUNCTION      0.15    12.84     0  02:54     0.00434       0.161       5.278
  YS02001920           JUNCTION      2.87     6.81     0  03:04      0.0809       0.147       0.887
  YS02001923           JUNCTION      0.04     3.94     0  03:04     0.00106      0.0662       0.178
  YS02001926           JUNCTION      0.05     3.92     0  03:01     0.00147       0.066       1.383
  YS02001929           JUNCTION      3.87     3.87     0  03:01      0.0646      0.0646       0.158
  YS02001658           JUNCTION      0.00    12.68     0  02:53           0       0.157       0.569
  YS02001661           JUNCTION      0.00    12.68     0  02:53           0       0.158       0.371
  YS02001664           JUNCTION     12.68    12.68     0  02:53       0.158       0.158       0.063
  YS02001622           JUNCTION      0.00     8.89     0  03:00           0       0.123       8.015
  YS02001633           JUNCTION      9.73    20.84     0  03:22       0.146       0.214      13.467
  YS02001649           JUNCTION      0.00    41.70     0  03:22           0       0.377       9.052
  YS02001757           JUNCTION      0.00    75.89     0  03:23           0       0.717      13.771
  YS02001895           JUNCTION      0.00    18.22     0  02:59           0       0.214       1.035
  YS02001625           JUNCTION      0.00    10.31     0  02:56           0       0.114      24.450
  YS02163301           JUNCTION      0.00    11.37     0  03:22           0      0.0866      25.606
  YS02163601           JUNCTION      0.11    20.12     0  03:23      0.0031       0.189      15.591
  YS02164001           JUNCTION      0.00    21.02     0  03:21           0       0.173      10.210
  YS02001647           JUNCTION      0.00    30.30     0  03:22           0       0.258       7.748
  YSB1154              JUNCTION      2.54     2.54     0  02:16      0.0121      0.0137      11.812
  YSB6556              JUNCTION      0.00     2.49     0  02:15           0      0.0148       9.112
  YSB1174              JUNCTION      2.83     2.83     0  02:10     0.00904      0.0101      14.466
  YSB1171              JUNCTION      0.00     4.88     0  02:12           0      0.0306      25.932
  YS02006553           JUNCTION      0.00    34.07     0  03:07           0       0.461       2.881
  YS02006561           JUNCTION      0.00    49.47     0  03:04           0       0.634       0.052
  YS02006556           JUNCTION      0.00    34.12     0  03:07           0       0.462       2.030
  YS02006558           JUNCTION     15.78    49.47     0  03:04       0.214       0.656       0.602
  YS02001783           JUNCTION      0.00    49.46     0  03:04           0       0.633       0.121
  YS02001784           JUNCTION      1.06    50.52     0  03:05      0.0299       0.663       0.205
  YS02001786           JUNCTION      0.06    50.57     0  03:05     0.00159       0.663       0.209
  YS02001788           JUNCTION      0.07    50.64     0  03:06       0.002       0.663       0.110
  YS02001790           JUNCTION      0.15    50.79     0  03:06     0.00437       0.667       0.143
  YS02001791           JUNCTION      0.00    51.01     0  03:06           0       0.666       0.059
  YS02001793           JUNCTION      0.00    83.48     0  03:03           0       0.673       0.621
  WSC                  OUTFALL       0.00   379.81     0  03:55           0        7.25       0.000
  JK-storage           STORAGE       0.00   236.32     0  03:06           0       0.819       1.275
  CC-storage           STORAGE       0.00    65.14     0  03:24           0       0.616       1.962
  XR-storage           STORAGE     217.07   217.07     0  02:56        5.88        6.48       0.000
  
  
  **********************
  Node Surcharge Summary
  **********************
  
  Surcharging occurs when water rises above the top of the highest conduit.
  ---------------------------------------------------------------------
                                               Max. Height   Min. Depth
                                   Hours       Above Crown    Below Rim
  Node                 Type      Surcharged         Meters       Meters
  ---------------------------------------------------------------------
  WS02006256           JUNCTION        3.68          2.050        0.000
  
  
  *********************
  Node Flooding Summary
  *********************
  
  Flooding refers to all water that overflows a node, whether it ponds or not.
  --------------------------------------------------------------------------
                                                             Total   Maximum
                                 Maximum   Time of Max       Flood    Ponded
                        Hours       Rate    Occurrence      Volume     Depth
  Node                 Flooded       LPS   days hr:min    10^6 ltr    Meters
  --------------------------------------------------------------------------
  WS02006256              0.55    154.97      0  03:04       0.080     0.000
  
  
  **********************
  Storage Volume Summary
  **********************
  
  --------------------------------------------------------------------------------------------------
                         Average     Avg  Evap Exfil       Maximum     Max    Time of Max    Maximum
                          Volume    Pcnt  Pcnt  Pcnt        Volume    Pcnt     Occurrence    Outflow
  Storage Unit           1000 m3    Full  Loss  Loss       1000 m3    Full    days hr:min        LPS
  --------------------------------------------------------------------------------------------------
  JK-storage               0.185      63     0     0         0.229      79       0  04:19     322.38
  CC-storage               0.196       1     0     0         0.604       4       0  07:50       0.00
  XR-storage               0.792      85     0     0         0.840      91       0  03:31     285.00
  
  
  ***********************
  Outfall Loading Summary
  ***********************
  
  ---------------------------------------------------------------------------------------------------------------------------------
                         Flow       Avg       Max       Total         Total         Total         Total         Total         Total
                         Freq      Flow      Flow      Volume           COD            SS            TN            TP         NH4-N
  Outfall Node           Pcnt       LPS       LPS    10^6 ltr            kg            kg            kg            kg            kg
  ---------------------------------------------------------------------------------------------------------------------------------
  WSC                   99.99    262.36    379.81       7.254      1428.981      2284.768       136.007        16.976        84.940
  ---------------------------------------------------------------------------------------------------------------------------------
  System                99.99    262.36    379.81       7.254      1428.981      2284.768       136.007        16.976        84.940
  
  
  ********************
  Link Flow Summary
  ********************
  
  -----------------------------------------------------------------------------
                                 Maximum  Time of Max   Maximum    Max/    Max/
                                  |Flow|   Occurrence   |Veloc|    Full    Full
  Link                 Type          LPS  days hr:min     m/sec    Flow   Depth
  -----------------------------------------------------------------------------
  WS02003066WSF200     CONDUIT    117.23     0  03:23      1.87    0.02    0.10
  WS02006287WS02006284 CONDUIT     44.25     0  02:28      0.92    0.02    0.11
  WS02006284WS02006280 CONDUIT     44.34     0  02:29      1.18    0.02    0.09
  WS02006280WS02006229 CONDUIT     44.34     0  02:29      1.88    0.01    0.07
  WS02006229WS02006228 CONDUIT    207.51     0  03:10      0.57    0.69    0.69
  WS02006256WS02006235 CONDUIT    288.67     0  06:58      4.21    3.06    1.00
  WS02006253WS02006251 CONDUIT      6.77     0  02:30      0.25    0.02    0.12
  WS02006252WS02006251 CONDUIT      0.00     0  00:00      0.00    0.00    0.00
  WS02006251WS02006249 CONDUIT      6.83     0  02:31      0.28    0.02    0.12
  WS02006249WS02006248 CONDUIT      6.79     0  02:34      0.33    0.04    0.10
  WS02006248WS02006247 CONDUIT      6.79     0  02:34      0.35    0.01    0.14
  WS02006247WS02006245 CONDUIT     12.86     0  03:13      0.35    0.10    0.21
  WS02006245WS02006243 CONDUIT     21.42     0  03:12      0.48    0.06    0.24
  WS02006243WS02006242 CONDUIT     40.64     0  03:12      0.50    0.09    0.37
  WS02006242WS02006240 CONDUIT     64.91     0  03:06      0.72    0.26    0.47
  WS02006240WS02006239 CONDUIT     80.48     0  07:00      0.75    0.25    0.48
  WS02006239WS02006238 CONDUIT    119.98     0  06:59      0.87    0.38    0.60
  WS02006238WS02006235 CONDUIT    178.95     0  03:04      1.40    0.40    0.65
  WS02006235WS02006234 CONDUIT    196.53     0  03:09      1.08    2.07    0.59
  WS02006234WS02006232 CONDUIT    192.61     0  03:09      1.11    0.39    0.66
  WS02006232WS02006231 CONDUIT    186.12     0  03:09      0.73    0.39    0.63
  WS02006231WS02006230 CONDUIT    178.82     0  03:10      1.05    2.71    0.46
  WS02006230WS02006229 CONDUIT    185.08     0  03:10      0.70    4.12    0.73
  WS02006228WS02006109 CONDUIT    201.44     0  03:10      0.51    0.88    0.74
  WS02006116WS02004401 CONDUIT    167.86     0  03:13      0.46    0.23    0.49
  WS02006115WS02006116 CONDUIT    175.38     0  03:12      0.63    0.23    0.40
  WS02006113WS02006111 CONDUIT    184.42     0  03:11      1.73    0.22    0.27
  WS02006112WS02006115 CONDUIT    179.31     0  03:12      0.45    0.11    0.51
  WS02006111WS02006112 CONDUIT    182.82     0  03:12      0.74    0.09    0.49
  WS02006110WS02006113 CONDUIT    187.56     0  03:11      0.66    0.17    0.55
  WS02006109WS02006110 CONDUIT    193.62     0  03:11      0.51    0.37    0.71
  WS02004411WS02004412 CONDUIT    119.85     0  03:20      0.60    0.17    0.37
  WS02004401WS02004402 CONDUIT    157.38     0  03:13      0.39    0.19    0.53
  WS02004413WS02003067 CONDUIT    117.29     0  03:22      0.47    0.05    0.36
  WS02004412WS02004413 CONDUIT    117.96     0  03:21      0.59    0.08    0.47
  WS02004410WS02004411 CONDUIT    122.10     0  03:16      0.56    0.17    0.34
  WS02004409WS02004410 CONDUIT    126.38     0  03:15      0.64    0.16    0.32
  WS02004407WS02004409 CONDUIT    129.36     0  03:15      1.04    0.05    0.22
  WS02004406WS02004407 CONDUIT    130.87     0  03:14      0.43    0.06    0.41
  WS02004405WS02004406 CONDUIT    135.90     0  03:14      0.25    0.27    0.66
  WS02004404WS02004405 CONDUIT    156.93     0  03:16      0.29    1.54    0.66
  WS02004403WS02004404 CONDUIT    144.21     0  03:14      0.36    0.10    0.62
  WS02004402WS02004403 CONDUIT    150.31     0  03:13      0.40    0.22    0.56
  WS02004139WS02001211 CONDUIT    287.18     0  06:24      0.54    0.36    0.51
  WS02004138WS02004139 CONDUIT    285.92     0  06:23      2.39    0.06    0.37
  WS02003067WS02003066 CONDUIT    117.25     0  03:22      0.50    0.04    0.26
  WS02001213WS02003059 CONDUIT    292.81     0  03:47      0.59    0.48    0.62
  WS02001212WS02001213 CONDUIT    292.66     0  02:39      1.19    0.45    0.35
  WS02001211WS02001212 CONDUIT    292.67     0  02:38      0.67    0.22    0.54
  WS02003072WS02003073 CONDUIT    380.44     0  03:54      1.26    0.82    0.31
  WS02003069WS02003072 CONDUIT    383.15     0  03:54      1.22    0.18    0.32
  WS02003060WS02003069 CONDUIT    384.57     0  03:53      1.50    0.15    0.28
  WS02003059WS02003060 CONDUIT    293.09     0  03:48      0.82    0.19    0.48
  HS02004901HS02004770 CONDUIT      2.06     0  02:11      0.03    0.01    0.19
  HS02004876HS02004881 CONDUIT      5.89     0  02:30      0.21    0.06    0.04
  HS02004870HS02004876 CONDUIT      4.68     0  02:27      0.15    0.00    0.04
  HS02004842HS02004848 CONDUIT      1.48     0  02:20      0.01    0.00    0.25
  HS02004837HS02004842 CONDUIT      4.49     0  00:03      0.42    0.00    0.26
  HS02004830HS02004837 CONDUIT     10.36     0  02:19      0.31    0.01    0.05
  HS02004824HS02004830 CONDUIT     10.51     0  02:20      0.35    0.01    0.04
  HS02004817HS02004824 CONDUIT     13.05     0  02:22      0.17    0.01    0.33
  HS02004770HS02004777 CONDUIT      9.17     0  02:20      0.09    0.02    0.20
  HS02004799HS02004480 CONDUIT     23.99     0  02:27      0.23    0.03    0.15
  HS02004792HS02004799 CONDUIT     21.97     0  02:26      0.27    0.01    0.11
  HS02004788HS02004792 CONDUIT     13.03     0  02:30      0.45    0.01    0.04
  HS02004785HS02004788 CONDUIT      8.72     0  02:30      0.22    0.07    0.06
  HS02004777HS02004785 CONDUIT      8.70     0  02:27      0.08    0.01    0.15
  HS02004480HS02004478 CONDUIT     28.14     0  02:28      0.46    0.12    0.09
  HS02004479HS02004480 CONDUIT      4.23     0  02:28      0.15    0.00    0.15
  HS02004862HS02004870 CONDUIT      3.30     0  02:28      0.23    0.00    0.02
  HS02004848HS02004852 CONDUIT      0.92     0  02:24      0.13    0.00    0.01
  HS02004856HS02004862 CONDUIT      1.96     0  02:26      0.15    0.00    0.02
  HS02004852HS02004856 CONDUIT      0.90     0  02:27      0.02    0.00    0.06
  HS02004802HS02004478 CONDUIT     16.14     0  02:26      0.15    0.01    0.16
  HS02004478WS02006287 CONDUIT     44.26     0  02:28      0.64    0.01    0.08
  HS02004817HS02004807 CONDUIT     13.57     0  02:26      0.05    0.01    0.41
  HS02004807HS02004802 CONDUIT     16.21     0  02:23      0.19    0.03    0.20
  YS02001759YS02001757 CONDUIT     28.96     0  03:28      0.12    0.02    0.91
  YS02001762YS02001759 CONDUIT     15.84     0  03:28      0.17    0.02    0.84
  YS02001765YS02001762 CONDUIT     15.34     0  03:26      0.22    0.01    0.79
  YS02001770YS02001767 CONDUIT     17.35     0  03:21      0.25    0.07    0.73
  YS02001774YS02001770 CONDUIT      8.23     0  02:46      0.15    0.01    0.74
  YS02001779YS02001774 CONDUIT      4.16     0  03:12      0.03    0.00    0.66
  YS02001649YS02001757 CONDUIT     38.91     0  03:23      0.09    0.02    0.89
  YS02001767YS02001765 CONDUIT     16.38     0  03:26      0.26    0.02    0.75
  YS02006561YS02001783 CONDUIT     49.46     0  03:04      1.11    0.03    0.14
  YS02001783YS02001784 CONDUIT     49.46     0  03:05      0.69    0.07    0.20
  YS02001784YS02001785 CONDUIT     50.51     0  03:05      0.67    0.12    0.21
  YS02001788YS02001790 CONDUIT     50.63     0  03:06      1.11    0.04    0.15
  YS02001790YS02001791 CONDUIT     51.01     0  03:06      1.29    0.06    0.14
  YS02001791YS02001793 CONDUIT     51.39     0  02:52      2.51    0.02    0.38
  YS02001910YS02001907 CONDUIT     15.93     0  03:04      0.49    0.01    0.50
  YS02001786YS02001788 CONDUIT     50.57     0  03:06      0.96    0.10    0.16
  YS02001915YS02001910 CONDUIT     15.93     0  03:03      0.44    0.01    0.29
  YS02001918YS02001915 CONDUIT      6.80     0  03:07      0.44    0.00    0.11
  YS02001923YS02001920 CONDUIT      3.94     0  03:04      0.14    0.00    0.08
  YS02001926YS02001923 CONDUIT      3.90     0  03:04      0.23    0.01    0.06
  YS02001929YS02001926 CONDUIT      3.86     0  03:01      0.22    0.00    0.06
  YS02001920YS02001918 CONDUIT      6.81     0  03:06      0.22    0.01    0.08
  YS02001629YS02163301 CONDUIT     11.37     0  03:22      0.06    0.01    0.68
  YS02001619YS02001622 CONDUIT      8.89     0  03:00      0.38    0.01    0.30
  YS02001622YS02001625 CONDUIT     10.31     0  02:56      0.17    0.01    0.46
  YS02001625YS02001629 CONDUIT     10.57     0  03:23      0.07    0.01    0.45
  YS02163301YS02001633 CONDUIT     11.75     0  03:22      0.06    0.01    0.73
  YS02163601YS02164001 CONDUIT     21.02     0  03:21      0.04    0.02    0.79
  YS02164001YS02001641 CONDUIT     21.15     0  03:21      0.06    0.03    0.77
  YS02001641YS02001644 CONDUIT     20.93     0  03:21      0.08    0.07    0.78
  YS02001647YS02001649 CONDUIT     29.24     0  03:22      0.11    0.02    0.72
  YS02006553YS02006556 CONDUIT     34.12     0  03:07      0.18    0.03    0.58
  YS02006556YS02006558 CONDUIT     34.12     0  03:07      0.07    0.03    0.61
  YSB6556YSB1171       CONDUIT      2.36     0  02:25      0.03    0.00    0.42
  YS02001907YS02006553 CONDUIT     34.07     0  03:07      0.06    0.04    0.67
  YS02006558YS02006561 CONDUIT     49.47     0  03:04      1.37    0.11    0.19
  YS02001633YS02163601 CONDUIT     20.01     0  03:23      0.06    0.02    0.78
  YS02001644YS02001647 CONDUIT     30.30     0  03:22      0.09    0.02    0.70
  YS02001745YS02001748 CONDUIT      9.98     0  03:01      0.79    0.00    0.05
  YS02001748YS02001751 CONDUIT     10.03     0  03:01      0.66    0.01    0.24
  YS02001751YS02001754 CONDUIT     14.73     0  03:24      0.65    0.01    0.45
  YS02001754YS02001757 CONDUIT     20.02     0  05:10      0.33    0.01    0.78
  YS02001882YS02001884 CONDUIT      1.28     0  02:08      0.07    0.00    0.22
  YS02001884YS02001887 CONDUIT      3.88     0  02:11      0.05    0.01    0.31
  YS02001890YS02001895 CONDUIT     18.22     0  02:59      0.10    0.01    0.29
  YS02001895YS02001898 CONDUIT     18.19     0  03:00      0.32    0.03    0.15
  YS02001898YS02001901 CONDUIT     18.21     0  03:02      0.13    0.01    0.23
  YS02001901YS02001904 CONDUIT     18.16     0  03:03      0.19    0.03    0.28
  YS02001904YS02001907 CONDUIT     18.21     0  03:03      0.05    0.01    0.44
  YS02001887YS02001890 CONDUIT     18.30     0  02:59      0.10    0.03    0.37
  YS02001652YS02001649 CONDUIT     14.69     0  03:28      0.25    0.01    0.73
  YS02001655YS02001652 CONDUIT     12.97     0  03:26      0.71    0.01    0.48
  YS02001658YS02001655 CONDUIT     12.68     0  02:54      0.76    0.01    0.22
  YS02001661YS02001658 CONDUIT     12.68     0  02:53      0.82    0.00    0.05
  YS02001664YS02001661 CONDUIT     12.68     0  02:53      0.41    0.00    0.08
  YSB1154YSB6556       CONDUIT      2.49     0  02:15      0.19    0.00    0.31
  YSB1174YSB1171       CONDUIT      2.78     0  02:11      0.02    0.00    0.43
  YSB1171HS02004479    CONDUIT      4.19     0  02:28      0.54    0.00    0.31
  HS02004881HS02006253 CONDUIT      6.61     0  02:30      0.83    0.00    0.01
  YS02001793JiankangQianchi CONDUIT    236.32     0  03:06      0.54    0.02    0.77
  YS02001757CaochengTiaoxuchi CONDUIT     65.14     0  03:24      0.23    0.03    0.59
  WSF200WS02003060     CONDUIT    117.20     0  03:23      0.87    0.03    0.18
  1                    CONDUIT    379.81     0  03:55      2.54    0.13    0.25
  CC-Pump-1            PUMP         0.00     0  00:00              0.00
  CC-Pump-2            PUMP         0.00     0  00:00              0.00
  JK-Pump-1            PUMP       300.00     0  03:03              1.00
  JK-Pump-2            PUMP         0.00     0  00:00              0.00
  XR-Pump-1            PUMP        95.00     0  00:00              1.00
  XR-Pump-2            PUMP        95.00     0  00:25              1.00
  XR-Pump-3            PUMP        95.00     0  02:19              1.00
  XR-Pump-4            PUMP         0.00     0  00:00              0.00
  
  
  ***************************
  Flow Classification Summary
  ***************************
  
  -------------------------------------------------------------------------------------
                      Adjusted    ---------- Fraction of Time in Flow Class ---------- 
                       /Actual         Up    Down  Sub   Sup   Up    Down  Norm  Inlet 
  Conduit               Length    Dry  Dry   Dry   Crit  Crit  Crit  Crit  Ltd   Ctrl  
  -------------------------------------------------------------------------------------
  WS02003066WSF200        1.00   0.31  0.00  0.00  0.00  0.69  0.00  0.00  0.66  0.00
  WS02006287WS02006284    1.00   0.09  0.07  0.00  0.71  0.13  0.00  0.00  0.81  0.00
  WS02006284WS02006280    1.00   0.12  0.00  0.00  0.00  0.00  0.00  0.88  0.00  0.00
  WS02006280WS02006229    1.00   0.12  0.00  0.00  0.00  0.00  0.00  0.88  0.00  0.00
  WS02006229WS02006228    1.00   0.00  0.00  0.00  0.99  0.00  0.00  0.01  0.00  0.00
  WS02006256WS02006235    1.00   0.18  0.00  0.00  0.80  0.02  0.00  0.00  0.06  0.00
  WS02006253WS02006251    1.00   0.04  0.05  0.00  0.89  0.00  0.01  0.00  0.00  0.00
  WS02006252WS02006251    1.00   1.00  0.00  0.00  0.00  0.00  0.00  0.00  0.00  0.00
  WS02006251WS02006249    1.00   0.00  0.00  0.00  1.00  0.00  0.00  0.00  0.98  0.00
  WS02006249WS02006248    1.00   0.00  0.01  0.00  0.01  0.00  0.98  0.00  0.00  0.00
  WS02006248WS02006247    1.00   0.02  0.00  0.00  0.94  0.00  0.00  0.05  0.86  0.00
  WS02006247WS02006245    1.00   0.02  0.00  0.00  0.90  0.00  0.00  0.08  0.00  0.00
  WS02006245WS02006243    1.00   0.03  0.00  0.00  0.71  0.00  0.00  0.26  0.01  0.00
  WS02006243WS02006242    1.00   0.03  0.00  0.00  0.86  0.00  0.00  0.11  0.72  0.00
  WS02006242WS02006240    1.00   0.04  0.11  0.00  0.83  0.00  0.02  0.00  0.00  0.00
  WS02006240WS02006239    1.00   0.15  0.00  0.00  0.30  0.00  0.00  0.55  0.03  0.00
  WS02006239WS02006238    1.00   0.15  0.00  0.00  0.82  0.00  0.00  0.03  0.26  0.00
  WS02006238WS02006235    1.00   0.15  0.03  0.00  0.81  0.00  0.00  0.00  0.00  0.00
  WS02006235WS02006234    1.00   0.22  0.02  0.00  0.56  0.00  0.21  0.00  0.00  0.00
  WS02006234WS02006232    1.00   0.24  0.00  0.00  0.76  0.00  0.00  0.00  0.07  0.00
  WS02006232WS02006231    1.00   0.24  0.05  0.00  0.68  0.00  0.03  0.00  0.00  0.00
  WS02006231WS02006230    1.00   0.29  0.00  0.00  0.00  0.00  0.70  0.00  0.00  0.00
  WS02006230WS02006229    1.00   0.00  0.00  0.00  0.97  0.00  0.00  0.03  0.03  0.00
  WS02006228WS02006109    1.00   0.00  0.00  0.00  1.00  0.00  0.00  0.00  0.00  0.00
  WS02006116WS02004401    1.00   0.09  0.00  0.00  0.91  0.00  0.00  0.00  0.01  0.00
  WS02006115WS02006116    1.00   0.09  0.00  0.00  0.82  0.00  0.00  0.09  0.00  0.00
  WS02006113WS02006111    1.00   0.05  0.00  0.00  0.02  0.92  0.00  0.00  0.05  0.00
  WS02006112WS02006115    1.00   0.06  0.03  0.00  0.90  0.00  0.00  0.00  0.00  0.00
  WS02006111WS02006112    1.00   0.06  0.00  0.00  0.93  0.00  0.00  0.01  0.92  0.00
  WS02006110WS02006113    1.00   0.01  0.04  0.00  0.95  0.00  0.00  0.00  0.00  0.00
  WS02006109WS02006110    1.00   0.00  0.01  0.00  0.98  0.00  0.01  0.00  0.00  0.00
  WS02004411WS02004412    1.00   0.25  0.00  0.00  0.75  0.00  0.00  0.00  0.00  0.00
  WS02004401WS02004402    1.00   0.09  0.00  0.00  0.91  0.00  0.00  0.00  0.04  0.00
  WS02004413WS02003067    1.00   0.25  0.04  0.00  0.00  0.00  0.70  0.00  0.00  0.00
  WS02004412WS02004413    1.00   0.25  0.00  0.00  0.75  0.00  0.00  0.00  0.01  0.00
  WS02004410WS02004411    1.00   0.24  0.00  0.00  0.76  0.00  0.00  0.00  0.00  0.00
  WS02004409WS02004410    1.00   0.24  0.00  0.00  0.76  0.00  0.00  0.00  0.00  0.00
  WS02004407WS02004409    1.00   0.24  0.00  0.00  0.75  0.01  0.00  0.00  0.71  0.00
  WS02004406WS02004407    1.00   0.00  0.24  0.00  0.76  0.00  0.00  0.00  0.00  0.00
  WS02004405WS02004406    1.00   0.00  0.00  0.00  1.00  0.00  0.00  0.00  0.04  0.00
  WS02004404WS02004405    1.00   0.00  0.00  0.00  1.00  0.00  0.00  0.00  0.03  0.00
  WS02004403WS02004404    1.00   0.00  0.10  0.00  0.90  0.00  0.00  0.00  0.04  0.00
  WS02004402WS02004403    1.00   0.09  0.00  0.00  0.91  0.00  0.00  0.00  0.00  0.00
  WS02004139WS02001211    1.00   0.00  0.00  0.00  1.00  0.00  0.00  0.00  0.00  0.00
  WS02004138WS02004139    1.00   0.00  0.00  0.00  0.99  0.01  0.00  0.00  1.00  0.00
  WS02003067WS02003066    1.00   0.30  0.01  0.00  0.69  0.00  0.00  0.00  0.00  0.00
  WS02001213WS02003059    1.00   0.00  0.01  0.00  0.99  0.00  0.00  0.00  0.00  0.00
  WS02001212WS02001213    1.00   0.01  0.00  0.00  0.00  0.00  0.99  0.00  0.00  0.00
  WS02001211WS02001212    1.00   0.00  0.01  0.00  0.99  0.00  0.00  0.00  0.00  0.00
  WS02003072WS02003073    1.00   0.00  0.00  0.00  0.00  0.00  0.00  1.00  0.00  0.00
  WS02003069WS02003072    1.00   0.00  0.00  0.00  1.00  0.00  0.00  0.00  0.96  0.00
  WS02003060WS02003069    1.00   0.00  0.00  0.00  0.98  0.02  0.00  0.00  0.54  0.00
  WS02003059WS02003060    1.00   0.00  0.00  0.00  1.00  0.00  0.00  0.00  0.02  0.00
  HS02004901HS02004770    1.00   0.11  0.01  0.00  0.88  0.00  0.00  0.00  0.03  0.00
  HS02004876HS02004881    1.00   0.02  0.00  0.00  0.98  0.00  0.00  0.00  0.00  0.00
  HS02004870HS02004876    1.00   0.00  0.00  0.00  0.99  0.01  0.00  0.00  0.95  0.00
  HS02004842HS02004848    1.00   0.00  0.13  0.00  0.87  0.00  0.00  0.00  0.77  0.00
  HS02004837HS02004842    1.00   0.00  0.00  0.00  0.99  0.01  0.00  0.00  0.11  0.00
  HS02004830HS02004837    1.00   0.00  0.00  0.00  1.00  0.00  0.00  0.00  0.99  0.00
  HS02004824HS02004830    1.00   0.00  0.00  0.00  1.00  0.00  0.00  0.00  0.00  0.00
  HS02004817HS02004824    1.00   0.00  0.00  0.00  1.00  0.00  0.00  0.00  1.00  0.00
  HS02004770HS02004777    1.00   0.00  0.12  0.00  0.88  0.00  0.00  0.00  0.08  0.00
  HS02004799HS02004480    1.00   0.00  0.03  0.00  0.82  0.00  0.15  0.00  0.00  0.00
  HS02004792HS02004799    1.00   0.00  0.00  0.00  0.99  0.01  0.00  0.00  0.98  0.00
  HS02004788HS02004792    1.00   0.00  0.00  0.00  0.99  0.01  0.00  0.00  0.98  0.00
  HS02004785HS02004788    1.00   0.00  0.00  0.00  1.00  0.00  0.00  0.00  0.00  0.00
  HS02004777HS02004785    1.00   0.00  0.00  0.00  1.00  0.00  0.00  0.00  0.23  0.00
  HS02004480HS02004478    1.00   0.15  0.00  0.00  0.67  0.00  0.02  0.16  0.00  0.00
  HS02004479HS02004480    1.00   0.03  0.00  0.00  0.97  0.00  0.00  0.00  0.17  0.00
  HS02004862HS02004870    1.00   0.00  0.00  0.00  1.00  0.00  0.00  0.00  0.05  0.00
  HS02004848HS02004852    1.00   0.13  0.00  0.00  0.87  0.00  0.00  0.00  0.69  0.00
  HS02004856HS02004862    1.00   0.00  0.24  0.00  0.76  0.00  0.00  0.00  0.71  0.00
  HS02004852HS02004856    1.00   0.12  0.05  0.00  0.83  0.00  0.00  0.00  0.79  0.00
  HS02004802HS02004478    1.00   0.12  0.03  0.00  0.85  0.00  0.00  0.00  0.00  0.00
  HS02004478WS02006287    1.00   0.16  0.00  0.00  0.84  0.00  0.00  0.00  0.81  0.00
  HS02004817HS02004807    1.00   0.00  0.11  0.00  0.89  0.00  0.00  0.00  0.00  0.00
  HS02004807HS02004802    1.00   0.12  0.00  0.00  0.88  0.00  0.00  0.01  0.01  0.00
  YS02001759YS02001757    1.00   0.00  0.00  0.00  1.00  0.00  0.00  0.00  0.17  0.00
  YS02001762YS02001759    1.00   0.00  0.00  0.00  1.00  0.00  0.00  0.00  0.07  0.00
  YS02001765YS02001762    1.00   0.00  0.00  0.00  1.00  0.00  0.00  0.00  0.25  0.00
  YS02001770YS02001767    1.00   0.00  0.00  0.00  1.00  0.00  0.00  0.00  0.00  0.00
  YS02001774YS02001770    1.00   0.00  0.18  0.00  0.82  0.00  0.00  0.00  0.05  0.00
  YS02001779YS02001774    1.00   0.00  0.00  0.00  1.00  0.00  0.00  0.00  0.31  0.00
  YS02001649YS02001757    1.00   0.00  0.00  0.00  1.00  0.00  0.00  0.00  0.20  0.00
  YS02001767YS02001765    1.00   0.00  0.00  0.00  1.00  0.00  0.00  0.00  0.01  0.00
  YS02006561YS02001783    1.00   0.25  0.00  0.00  0.00  0.75  0.00  0.00  0.70  0.00
  YS02001783YS02001784    1.00   0.00  0.25  0.00  0.75  0.00  0.00  0.00  0.60  0.00
  YS02001784YS02001785    1.00   0.00  0.00  0.00  1.00  0.00  0.00  0.00  0.28  0.00
  YS02001788YS02001790    1.00   0.00  0.00  0.00  0.27  0.73  0.00  0.00  1.00  0.00
  YS02001790YS02001791    1.00   0.00  0.00  0.00  0.01  0.99  0.00  0.00  0.00  0.00
  YS02001791YS02001793    1.00   0.00  0.00  0.00  0.22  0.78  0.00  0.00  0.26  0.00
  YS02001910YS02001907    1.00   0.00  0.00  0.00  0.98  0.00  0.00  0.02  0.13  0.00
  YS02001786YS02001788    1.00   0.00  0.00  0.00  0.77  0.23  0.00  0.00  0.00  0.00
  YS02001915YS02001910    1.00   0.00  0.00  0.00  0.99  0.01  0.00  0.00  0.27  0.00
  YS02001918YS02001915    1.00   0.00  0.00  0.00  0.98  0.01  0.00  0.00  0.78  0.00
  YS02001923YS02001920    1.00   0.00  0.00  0.00  1.00  0.00  0.00  0.00  1.00  0.00
  YS02001926YS02001923    1.00   0.00  0.06  0.00  0.00  0.00  0.94  0.00  0.00  0.00
  YS02001929YS02001926    1.00   0.00  0.12  0.00  0.88  0.00  0.00  0.00  0.86  0.00
  YS02001920YS02001918    1.00   0.00  0.00  0.00  1.00  0.00  0.00  0.00  0.00  0.00
  YS02001629YS02163301    1.00   0.21  0.02  0.00  0.77  0.00  0.00  0.00  0.00  0.00
  YS02001619YS02001622    1.00   0.11  0.00  0.00  0.89  0.00  0.00  0.00  0.00  0.00
  YS02001622YS02001625    1.00   0.12  0.00  0.00  0.88  0.00  0.00  0.00  0.16  0.00
  YS02001625YS02001629    1.00   0.13  0.15  0.00  0.60  0.00  0.12  0.00  0.00  0.00
  YS02163301YS02001633    1.00   0.00  0.21  0.00  0.79  0.00  0.00  0.00  0.00  0.00
  YS02163601YS02164001    1.00   0.00  0.07  0.00  0.93  0.00  0.00  0.00  0.00  0.00
  YS02164001YS02001641    1.00   0.01  0.06  0.00  0.93  0.00  0.00  0.00  0.07  0.00
  YS02001641YS02001644    1.00   0.00  0.01  0.00  0.99  0.00  0.00  0.00  0.00  0.00
  YS02001647YS02001649    1.00   0.00  0.25  0.00  0.75  0.00  0.00  0.00  0.01  0.00
  YS02006553YS02006556    1.00   0.01  0.00  0.00  0.99  0.00  0.00  0.00  0.03  0.00
  YS02006556YS02006558    1.00   0.00  0.00  0.00  1.00  0.00  0.00  0.00  0.00  0.00
  YSB6556YSB1171          1.00   0.03  0.07  0.00  0.90  0.00  0.00  0.00  0.00  0.00
  YS02001907YS02006553    1.00   0.00  0.02  0.00  0.98  0.00  0.00  0.00  0.00  0.00
  YS02006558YS02006561    1.00   0.25  0.00  0.00  0.00  0.75  0.00  0.00  0.47  0.00
  YS02001633YS02163601    1.00   0.00  0.01  0.00  0.99  0.00  0.00  0.00  0.21  0.00
  YS02001644YS02001647    1.00   0.00  0.25  0.00  0.75  0.00  0.00  0.00  0.00  0.00
  YS02001745YS02001748    1.00   0.00  0.00  0.00  0.06  0.04  0.00  0.89  0.11  0.00
  YS02001748YS02001751    1.00   0.00  0.00  0.00  0.83  0.17  0.00  0.00  0.51  0.00
  YS02001751YS02001754    1.00   0.00  0.00  0.00  0.70  0.00  0.00  0.29  0.07  0.00
  YS02001754YS02001757    1.00   0.00  0.00  0.00  1.00  0.00  0.00  0.00  0.30  0.00
  YS02001882YS02001884    1.00   0.19  0.02  0.00  0.79  0.00  0.00  0.00  0.00  0.00
  YS02001884YS02001887    1.00   0.05  0.04  0.00  0.91  0.00  0.00  0.00  0.00  0.00
  YS02001890YS02001895    1.00   0.00  0.22  0.00  0.78  0.00  0.00  0.00  0.00  0.00
  YS02001895YS02001898    1.00   0.22  0.01  0.00  0.74  0.00  0.04  0.00  0.00  0.00
  YS02001898YS02001901    1.00   0.20  0.03  0.00  0.77  0.00  0.00  0.00  0.02  0.00
  YS02001901YS02001904    1.00   0.20  0.00  0.00  0.80  0.00  0.00  0.00  0.00  0.00
  YS02001904YS02001907    1.00   0.00  0.20  0.00  0.80  0.00  0.00  0.00  0.00  0.00
  YS02001887YS02001890    1.00   0.00  0.00  0.00  0.97  0.00  0.02  0.00  0.00  0.00
  YS02001652YS02001649    1.00   0.00  0.00  0.00  1.00  0.00  0.00  0.00  0.29  0.00
  YS02001655YS02001652    1.00   0.00  0.00  0.00  0.71  0.00  0.00  0.28  0.07  0.00
  YS02001658YS02001655    1.00   0.00  0.19  0.00  0.63  0.18  0.00  0.00  0.61  0.00
  YS02001661YS02001658    1.00   0.19  0.00  0.00  0.13  0.69  0.00  0.00  0.73  0.00
  YS02001664YS02001661    1.00   0.11  0.00  0.00  0.89  0.00  0.00  0.00  0.86  0.00
  YSB1154YSB6556          1.00   0.10  0.00  0.00  0.90  0.00  0.00  0.00  0.02  0.00
  YSB1174YSB1171          1.00   0.04  0.04  0.00  0.92  0.00  0.00  0.00  0.00  0.00
  YSB1171HS02004479       1.00   0.03  0.00  0.00  0.95  0.00  0.00  0.01  0.14  0.00
  HS02004881HS02006253    1.00   0.05  0.00  0.00  0.00  0.00  0.00  0.95  0.00  0.00
  YS02001793JiankangQianchi    1.00   0.00  0.00  0.00  1.00  0.00  0.00  0.00  0.72  0.00
  YS02001757CaochengTiaoxuchi    1.00   0.00  0.41  0.00  0.59  0.00  0.00  0.00  0.00  0.00
  WSF200WS02003060        1.00   0.00  0.31  0.00  0.69  0.00  0.00  0.00  0.66  0.00
  1                       1.00   0.00  0.00  0.00  0.00  1.00  0.00  0.00  0.24  0.00
  
  
  *************************
  Conduit Surcharge Summary
  *************************
  
  ----------------------------------------------------------------------------
                                                           Hours        Hours 
                         --------- Hours Full --------   Above Full   Capacity
  Conduit                Both Ends  Upstream  Dnstream   Normal Flow   Limited
  ----------------------------------------------------------------------------
  WS02006256WS02006235        0.62      0.65      3.66      0.56         0.01
  WS02006235WS02006234        0.01      0.01      0.01      0.51         0.01
  WS02006231WS02006230        0.01      0.01      0.01      0.84         0.01
  WS02006230WS02006229        0.01      0.01      0.01      1.32         0.01
  WS02004404WS02004405        0.01      0.01      0.01      0.36         0.01
  YS02001793JiankangQianchi        0.01      0.01      7.82      0.01         0.01
  
  
  ***************
  Pumping Summary
  ***************
  
  ---------------------------------------------------------------------------------------------------------
                                                  Min       Avg       Max     Total     Power    % Time Off
                        Percent   Number of      Flow      Flow      Flow    Volume     Usage    Pump Curve
  Pump                 Utilized   Start-Ups       LPS       LPS       LPS  10^6 ltr     Kw-hr    Low   High
  ---------------------------------------------------------------------------------------------------------
  CC-Pump-1                0.00           0      0.00      0.00      0.00     0.000      0.00    0.0    0.0
  CC-Pump-2                0.00           0      0.00      0.00      0.00     0.000      0.00    0.0    0.0
  JK-Pump-1                6.96           6      0.00    300.00    300.00     0.589      7.28    0.0    0.0
  JK-Pump-2                0.00           0      0.00      0.00      0.00     0.000      0.00    0.0    0.0
  XR-Pump-1              100.00           1      0.00     95.00     95.00     2.679     20.43    0.0    0.0
  XR-Pump-2               94.70           1      0.00     95.00     95.00     2.537     19.01    0.0    0.0
  XR-Pump-3               16.26           4      0.00     95.00     95.00     0.436      3.27    0.0    0.0
  XR-Pump-4                0.00           0      0.00      0.00      0.00     0.000      0.00    0.0    0.0
  
  
  ***************************
  Link Pollutant Load Summary
  ***************************
  
  ------------------------------------------------------------------------------------------
                                 COD            SS            TN            TP         NH4-N
  Link                            kg            kg            kg            kg            kg
  ------------------------------------------------------------------------------------------
  WS02003066WSF200            81.635       129.256         6.761         0.824         4.173
  WS02006287WS02006284        60.097        96.018         5.289         0.652         3.282
  WS02006284WS02006280        60.517        96.690         5.329         0.657         3.307
  WS02006280WS02006229        60.493        96.651         5.327         0.657         3.305
  WS02006229WS02006228        89.187       140.944         7.373         0.898         4.550
  WS02006256WS02006235        28.631        44.119         2.092         0.248         1.276
  WS02006253WS02006251         2.616         4.192         0.152         0.017         0.090
  WS02006252WS02006251         0.000         0.000         0.000         0.000         0.000
  WS02006251WS02006249         3.169         5.078         0.204         0.023         0.123
  WS02006249WS02006248         3.072         4.922         0.195         0.022         0.117
  WS02006248WS02006247         3.081         4.938         0.196         0.022         0.117
  WS02006247WS02006245         3.622         5.780         0.236         0.027         0.142
  WS02006245WS02006243         4.282         6.804         0.283         0.033         0.170
  WS02006243WS02006242         6.146         9.685         0.417         0.048         0.252
  WS02006242WS02006240        10.189        15.904         0.704         0.082         0.427
  WS02006240WS02006239        13.732        21.350         0.963         0.113         0.585
  WS02006239WS02006238        17.791        27.583         1.261         0.148         0.767
  WS02006238WS02006235        20.489        31.719         1.463         0.172         0.890
  WS02006235WS02006234        29.475        45.549         2.119         0.250         1.290
  WS02006234WS02006232        30.103        46.527         2.162         0.255         1.317
  WS02006232WS02006231        29.208        45.130         2.099         0.248         1.278
  WS02006231WS02006230        29.576        45.689         2.127         0.251         1.295
  WS02006230WS02006229        29.632        45.778         2.130         0.251         1.297
  WS02006228WS02006109        88.064       139.158         7.267         0.885         4.484
  WS02006116WS02004401        91.103       144.114         7.570         0.923         4.674
  WS02006115WS02006116        91.962       145.453         7.642         0.932         4.718
  WS02006113WS02006111        94.087       148.805         7.851         0.958         4.849
  WS02006112WS02006115        92.668       146.571         7.704         0.939         4.757
  WS02006111WS02006112        93.716       148.223         7.817         0.954         4.828
  WS02006110WS02006113        94.329       149.195         7.874         0.961         4.864
  WS02006109WS02006110        95.428       150.954         7.978         0.974         4.929
  WS02004411WS02004412        84.121       133.184         6.981         0.851         4.310
  WS02004401WS02004402        90.197       142.694         7.493         0.914         4.626
  WS02004413WS02003067        82.288       130.286         6.818         0.831         4.209
  WS02004412WS02004413        83.105       131.580         6.892         0.840         4.255
  WS02004410WS02004411        84.785       134.229         7.039         0.858         4.346
  WS02004409WS02004410        85.275       135.000         7.082         0.864         4.372
  WS02004407WS02004409        85.666       135.615         7.116         0.868         4.394
  WS02004406WS02004407        85.831       135.874         7.131         0.870         4.403
  WS02004405WS02004406        87.739       138.896         7.303         0.891         4.510
  WS02004404WS02004405        88.776       140.506         7.387         0.901         4.562
  WS02004403WS02004404        88.432       139.932         7.345         0.896         4.535
  WS02004402WS02004403        89.256       141.223         7.415         0.904         4.578
  WS02004139WS02001211      1204.240      1926.493       115.489        14.432        72.168
  WS02004138WS02004139      1209.821      1935.418       116.024        14.499        72.501
  WS02003067WS02003066        81.679       129.326         6.765         0.825         4.176
  WS02001213WS02003059      1238.941      1982.020       118.824        14.849        74.252
  WS02001212WS02001213      1246.759      1994.525       119.573        14.942        74.720
  WS02001211WS02001212      1248.551      1997.393       119.744        14.964        74.827
  WS02003072WS02003073      1422.860      2274.958       135.413        16.902        84.568
  WS02003069WS02003072      1426.927      2281.461       135.802        16.950        84.811
  WS02003060WS02003069      1428.422      2283.847       135.943        16.968        84.899
  WS02003059WS02003060      1236.558      1978.210       118.596        14.820        74.109
  HS02004901HS02004770         0.325         0.517         0.007         0.000         0.003
  HS02004876HS02004881         2.378         3.803         0.149         0.017         0.089
  HS02004870HS02004876         2.161         3.461         0.152         0.018         0.091
  HS02004842HS02004848         0.152         0.231         0.004         0.000         0.002
  HS02004837HS02004842         4.634         7.410         0.441         0.055         0.275
  HS02004830HS02004837        43.276        69.231         4.104         0.512         2.563
  HS02004824HS02004830        44.028        70.436         4.177         0.521         2.608
  HS02004817HS02004824        44.985        71.930         4.222         0.526         2.634
  HS02004770HS02004777         1.337         2.139         0.035         0.002         0.015
  HS02004799HS02004480        18.031        28.725         1.454         0.176         0.893
  HS02004792HS02004799        18.176        28.945         1.503         0.183         0.925
  HS02004788HS02004792        14.725        23.542         1.290         0.159         0.798
  HS02004785HS02004788         2.825         4.528         0.185         0.021         0.110
  HS02004777HS02004785         2.400         3.850         0.146         0.016         0.085
  HS02004480HS02004478        18.116        28.873         1.403         0.169         0.859
  HS02004479HS02004480         4.983         7.982         0.418         0.051         0.259
  HS02004862HS02004870         1.880         2.991         0.146         0.017         0.089
  HS02004848HS02004852         0.142         0.214         0.004         0.000         0.002
  HS02004856HS02004862         0.313         0.495         0.008         0.000         0.004
  HS02004852HS02004856         0.146         0.222         0.004         0.000         0.002
  HS02004802HS02004478        42.357        67.745         3.922         0.487         2.445
  HS02004478WS02006287        60.284        96.317         5.307         0.654         3.293
  HS02004817HS02004807        43.557        69.647         4.085         0.509         2.549
  HS02004807HS02004802        43.202        69.098         4.003         0.498         2.496
  YS02001759YS02001757         8.940        13.076         0.425         0.044         0.245
  YS02001762YS02001759         6.188         9.304         0.354         0.039         0.209
  YS02001765YS02001762         6.544         9.905         0.405         0.045         0.242
  YS02001770YS02001767         4.326         6.273         0.170         0.015         0.094
  YS02001774YS02001770         1.327         1.933         0.049         0.004         0.026
  YS02001779YS02001774         1.167         1.802         0.083         0.010         0.050
  YS02001649YS02001757        10.244        14.491         0.403         0.038         0.218
  YS02001767YS02001765         6.962        10.573         0.450         0.051         0.270
  YS02006561YS02001783        39.580        60.230         2.687         0.312         1.626
  YS02001783YS02001784        39.524        60.145         2.683         0.312         1.624
  YS02001784YS02001785        46.910        71.970         3.394         0.401         2.068
  YS02001788YS02001790        47.633        73.137         3.466         0.410         2.113
  YS02001790YS02001791        48.648        74.765         3.564         0.422         2.175
  YS02001791YS02001793        48.640        74.754         3.564         0.422         2.174
  YS02001910YS02001907        24.916        38.929         2.096         0.254         1.293
  YS02001786YS02001788        47.184        72.415         3.422         0.404         2.085
  YS02001915YS02001910        25.132        39.225         2.105         0.255         1.298
  YS02001918YS02001915        22.024        34.822         2.017         0.250         1.256
  YS02001923YS02001920         2.115         2.960         0.105         0.011         0.061
  YS02001926YS02001923         1.722         2.328         0.066         0.006         0.036
  YS02001929YS02001926         1.387         1.788         0.033         0.002         0.016
  YS02001920YS02001918        22.057        34.871         2.020         0.250         1.257
  YS02001629YS02163301         1.707         2.359         0.051         0.003         0.024
  YS02001619YS02001622         2.344         3.198         0.067         0.004         0.030
  YS02001622YS02001625         2.200         3.013         0.063         0.004         0.028
  YS02001625YS02001629         1.840         2.532         0.053         0.003         0.024
  YS02163301YS02001633         1.649         2.288         0.052         0.004         0.026
  YS02163601YS02164001         5.660         8.086         0.264         0.027         0.150
  YS02164001YS02001641         5.345         7.598         0.237         0.024         0.134
  YS02001641YS02001644         5.200         7.345         0.215         0.021         0.119
  YS02001647YS02001649         7.120         9.901         0.250         0.023         0.134
  YS02006553YS02006556        32.986        50.619         2.398         0.284         1.464
  YS02006556YS02006558        32.824        50.330         2.368         0.280         1.444
  YSB6556YSB1171               1.660         2.650         0.122         0.015         0.075
  YS02001907YS02006553        32.888        50.450         2.389         0.283         1.458
  YS02006558YS02006561        39.603        60.265         2.689         0.313         1.628
  YS02001633YS02163601         5.790         8.187         0.248         0.024         0.138
  YS02001644YS02001647         7.344        10.179         0.258         0.023         0.139
  YS02001745YS02001748         3.268         4.509         0.087         0.005         0.042
  YS02001748YS02001751         3.570         5.002         0.117         0.008         0.061
  YS02001751YS02001754         3.535         4.975         0.120         0.009         0.063
  YS02001754YS02001757         7.804        11.819         0.529         0.060         0.318
  YS02001882YS02001884         0.112         0.165         0.006         0.001         0.004
  YS02001884YS02001887         0.473         0.708         0.028         0.003         0.017
  YS02001890YS02001895         9.049        13.085         0.358         0.036         0.203
  YS02001895YS02001898         8.970        12.969         0.353         0.036         0.200
  YS02001898YS02001901         8.887        12.853         0.348         0.035         0.198
  YS02001901YS02001904         9.125        13.261         0.378         0.039         0.216
  YS02001904YS02001907        10.091        14.850         0.481         0.052         0.282
  YS02001887YS02001890         9.900        14.410         0.430         0.045         0.248
  YS02001652YS02001649         4.061         5.859         0.172         0.016         0.092
  YS02001655YS02001652         4.392         6.324         0.188         0.018         0.100
  YS02001658YS02001655         3.507         4.870         0.097         0.006         0.042
  YS02001661YS02001658         3.501         4.855         0.097         0.006         0.042
  YS02001664YS02001661         3.504         4.859         0.097         0.006         0.042
  YSB1154YSB6556               1.088         1.726         0.056         0.006         0.033
  YSB1174YSB1171               1.167         1.882         0.082         0.010         0.050
  YSB1171HS02004479            4.757         7.621         0.395         0.049         0.244
  HS02004881HS02006253         2.546         4.080         0.152         0.017         0.090
  YS02001793JiankangQianchi        48.059        73.870         3.516         0.416         2.145
  YS02001757CaochengTiaoxuchi        18.782        26.984         0.795         0.077         0.443
  WSF200WS02003060            81.256       128.658         6.727         0.820         4.152
  1                         1428.981      2284.768       136.007        16.976        84.940
  CC-Pump-1                    0.000         0.000         0.000         0.000         0.000
  CC-Pump-2                    0.000         0.000         0.000         0.000         0.000
  JK-Pump-1                   32.616        50.229         2.375         0.281         1.449
  JK-Pump-2                    0.000         0.000         0.000         0.000         0.000
  XR-Pump-1                  559.776       895.506        53.684         6.709        33.546
  XR-Pump-2                  552.735       884.241        53.008         6.624        33.124
  XR-Pump-3                  100.227       160.338         9.612         1.201         6.006
  XR-Pump-4                    0.000         0.000         0.000         0.000         0.000
  

  Analysis begun on:  Sat Jul 10 23:49:28 2021
  Analysis ended on:  Sat Jul 10 23:49:29 2021
  Total elapsed time: 00:00:01