
  EPA STORM WATER MANAGEMENT MODEL - VERSION 5.1 (Build 5.3.0.dev0)
  --------------------------------------------------------------

  WARNING 04: minimum elevation drop used for Conduit WS02004404WS02004405
  WARNING 03: negative offset ignored for Link YS02001904YS02001907
  
  *********************************************************
  NOTE: The summary statistics displayed in this report are
  based on results found at every computational time step,  
  not just on results from each reporting time step.
  *********************************************************
  
  ****************
  Analysis Options
  ****************
  Flow Units ............... LPS
  Process Models:
    Rainfall/Runoff ........ YES
    RDII ................... NO
    Snowmelt ............... NO
    Groundwater ............ NO
    Flow Routing ........... YES
    Ponding Allowed ........ NO
    Water Quality .......... YES
  Infiltration Method ...... HORTON
  Flow Routing Method ...... DYNWAVE
  Surcharge Method ......... EXTRAN
  Starting Date ............ 08/28/2015 08:00:00
  Ending Date .............. 08/28/2015 16:00:00
  Antecedent Dry Days ...... 8.0
  Report Time Step ......... 00:01:00
  Wet Time Step ............ 00:01:00
  Dry Time Step ............ 00:01:00
  Routing Time Step ........ 5.00 sec
  Variable Time Step ....... YES
  Maximum Trials ........... 8
  Number of Threads ........ 4
  Head Tolerance ........... 0.001500 m
  
  
  **************************        Volume         Depth
  Runoff Quantity Continuity     hectare-m            mm
  **************************     ---------       -------
  Total Precipitation ......         7.641        16.729
  Evaporation Loss .........         0.000         0.000
  Infiltration Loss ........         1.187         2.600
  Surface Runoff ...........         5.505        12.052
  Final Storage ............         0.950         2.080
  Continuity Error (%) .....        -0.016
  
  
  **************************           COD            SS            TN            TP         NH4-N
  Runoff Quality Continuity             kg            kg            kg            kg            kg
  **************************    ----------    ----------    ----------    ----------    ----------
  Initial Buildup ..........     41378.656     70582.865      1804.177       168.684      1032.807
  Surface Buildup ..........        32.516        68.499         2.497         0.224         1.426
  Wet Deposition ...........         0.000         0.000         0.000         0.000         0.000
  Sweeping Removal .........         0.000         0.000         0.000         0.000         0.000
  Infiltration Loss ........       128.766       248.591         2.469         0.175         1.182
  BMP Removal ..............         0.000         0.000         0.000         0.000         0.000
  Surface Runoff ...........      5565.309     10652.910       107.374         7.429        51.205
  Remaining Buildup ........     35715.041     59745.900      1696.789       161.300       981.827
  Continuity Error (%) .....         0.005         0.006         0.002         0.002         0.002
  
  
  **************************        Volume        Volume
  Flow Routing Continuity        hectare-m      10^6 ltr
  **************************     ---------     ---------
  Dry Weather Inflow .......         0.630         6.296
  Wet Weather Inflow .......         5.503        55.032
  Groundwater Inflow .......         0.000         0.000
  RDII Inflow ..............         0.000         0.000
  External Inflow ..........         0.105         1.045
  External Outflow .........         2.252        22.524
  Flooding Loss ............         3.544        35.437
  Evaporation Loss .........         0.000         0.000
  Exfiltration Loss ........         0.000         0.000
  Initial Stored Volume ....         0.076         0.761
  Final Stored Volume ......         0.645         6.450
  Continuity Error (%) .....        -2.026
  
  
  **************************           COD            SS            TN            TP         NH4-N
  Quality Routing Continuity            kg            kg            kg            kg            kg
  **************************    ----------    ----------    ----------    ----------    ----------
  Dry Weather Inflow .......      1573.993      2518.389       151.103        18.888        94.440
  Wet Weather Inflow .......      5564.382     10651.305       107.354         7.428        51.195
  Groundwater Inflow .......         0.000         0.000         0.000         0.000         0.000
  RDII Inflow ..............         0.000         0.000         0.000         0.000         0.000
  External Inflow ..........       187.321       299.713        17.983         2.248        11.239
  External Outflow .........      2723.260      4873.184       146.906        16.731        87.387
  Flooding Loss ............      3894.167      7374.011       100.461         8.831        52.890
  Exfiltration Loss ........         0.000         0.000         0.000         0.000         0.000
  Mass Reacted .............         0.000         0.000         0.000         0.000         0.000
  Initial Stored Mass ......         0.000         0.000         0.000         0.000         0.000
  Final Stored Mass ........       563.035       978.823        24.873         2.640        14.378
  Continuity Error (%) .....         1.983         1.807         1.520         1.266         1.415
  
  
  *************************
  Highest Continuity Errors
  *************************
  Node HS02004842 (10.95%)
  Node JK-storage (-10.36%)
  Node YS02001884 (7.24%)
  Node HS02004817 (2.12%)
  Node YSB1171 (1.97%)
  
  
  ***************************
  Time-Step Critical Elements
  ***************************
  Link WS02006252WS02006251 (71.22%)
  Link WS02006280WS02006229 (10.87%)
  Link YS02001793JiankangQianchi (4.28%)
  Link WS02006238WS02006235 (3.16%)
  Link WS02004404WS02004405 (2.42%)
  
  
  ********************************
  Highest Flow Instability Indexes
  ********************************
  Link WS02006113WS02006111 (37)
  Link YS02163601YS02164001 (27)
  Link YS02001629YS02163301 (27)
  Link WS02006111WS02006112 (26)
  Link YS02163301YS02001633 (26)
  
  
  *************************
  Routing Time Step Summary
  *************************
  Minimum Time Step           :     0.02 sec
  Average Time Step           :     1.07 sec
  Maximum Time Step           :     5.00 sec
  Percent in Steady State     :    -0.00
  Average Iterations per Step :     3.76
  Percent Not Converging      :    14.40
  
  
  ***************************
  Subcatchment Runoff Summary
  ***************************
  
  ------------------------------------------------------------------------------------------------------------------------------
                            Total      Total      Total      Total     Imperv       Perv      Total       Total     Peak  Runoff
                           Precip      Runon       Evap      Infil     Runoff     Runoff     Runoff      Runoff   Runoff   Coeff
  Subcatchment                 mm         mm         mm         mm         mm         mm         mm    10^6 ltr      LPS
  ------------------------------------------------------------------------------------------------------------------------------
  sub0                      16.73       0.00       0.00       0.71      15.51       0.47      15.98        0.01     3.87   0.955
  sub1                      16.73       0.00       0.00       1.18      14.80       0.66      15.47        0.10    26.74   0.924
  sub2                      16.73       0.00       0.00       4.79      10.46       1.40      11.85        0.11    25.81   0.709
  sub3                      16.73       0.00       0.00       5.01      10.42       1.18      11.60        0.26    56.97   0.694
  sub4                      16.73       0.00       0.00       1.28      14.65       0.56      15.21        0.32    66.74   0.909
  sub5                      16.73       0.00       0.00       0.73      15.47       0.44      15.91        0.18    46.91   0.951
  sub7                      16.73       0.00       0.00       0.93      15.16       0.58      15.74        0.05    14.85   0.941
  sub8                      16.73       0.00       0.00       0.94      15.15       0.57      15.72        0.10    27.42   0.940
  sub9                      16.73       0.00       0.00       0.94      15.15       0.57      15.72        0.08    20.52   0.940
  sub10                     16.73       0.00       0.00       0.83      15.31       0.50      15.81        0.17    46.04   0.945
  sub11                     16.73       0.00       0.00       0.83      15.32       0.51      15.84        0.18    50.62   0.947
  sub12                     16.73       0.00       0.00       1.34      14.51       0.83      15.34        0.13    39.22   0.917
  sub14                     16.73       0.00       0.00       0.94      15.15       0.57      15.72        0.15    40.40   0.940
  sub15                     16.73       0.00       0.00       3.54      11.65       1.48      13.13        0.23    57.86   0.785
  sub16                     16.73       0.00       0.00       3.72      11.17       1.80      12.97        0.14    37.34   0.776
  sub17                     16.73       0.00       0.00       3.62      11.33       1.73      13.07        0.11    30.57   0.781
  sub22                     16.73       0.00       0.00       5.27       9.50       1.92      11.42        0.72   183.11   0.683
  sub23                     16.73       0.00       0.00       4.37      10.50       1.82      12.32        0.59   153.57   0.736
  sub60                     16.73       0.00       0.00       1.74      12.84       0.27      13.11        3.97   446.24   0.784
  sub61                     16.73       0.00       0.00       2.46      12.76       0.38      13.15        4.05   542.53   0.786
  sub62                     16.73       0.00       0.00       1.06      13.96       0.27      14.24        4.38   558.01   0.851
  sub63                     16.73       0.00       0.00       4.39      11.09       0.46      11.55        3.50   496.40   0.690
  sub64                     16.73       0.00       0.00       2.23      12.34       0.28      12.62        3.84   424.95   0.754
  sub65                     16.73       0.00       0.00       1.91      12.57       0.27      12.84        3.95   431.32   0.767
  sub66                     16.73       0.00       0.00       4.54      10.51       0.31      10.82        3.32   388.44   0.647
  sub67                     16.73       0.00       0.00       1.01      14.49       0.32      14.81        4.57   675.76   0.885
  sub68                     16.73       0.00       0.00       1.95      13.36       0.39      13.75        4.23   589.75   0.822
  sub69                     16.73       0.00       0.00       2.00      13.64       0.51      14.15        3.31   542.07   0.846
  sub70                     16.73      14.44       0.00       8.48      19.08       2.12      21.20        4.85   534.50   0.680
  sub71                     16.73       0.00       0.00       1.08      13.70       0.25      13.96        3.30   394.68   0.834
  sub72                     16.73       0.00       0.00       1.02      11.61       0.15      11.76        2.40   206.66   0.703
  1                         16.73      20.64       0.00       1.40      22.50       7.30      29.80        7.00   612.18   0.797
  2                         16.73       0.00       0.00       3.09       4.04       3.23       7.28        2.91   331.58   0.435
  
  
  ****************************
  Subcatchment Washoff Summary
  ****************************
  
  ------------------------------------------------------------------------------------------
                                 COD            SS            TN            TP         NH4-N
  Subcatchment                    kg            kg            kg            kg            kg
  ------------------------------------------------------------------------------------------
  sub0                         3.641         7.161         0.064         0.005         0.031
  sub1                        15.670        31.767         0.296         0.021         0.143
  sub2                        10.304        20.454         0.214         0.015         0.099
  sub3                        25.293        49.815         0.517         0.036         0.240
  sub4                        36.171        74.264         0.714         0.044         0.344
  sub5                        35.763        71.366         0.649         0.050         0.316
  sub7                         7.894        16.212         0.150         0.010         0.073
  sub8                        11.755        24.726         0.234         0.014         0.113
  sub9                        10.113        20.966         0.196         0.013         0.095
  sub10                       29.347        59.341         0.545         0.040         0.265
  sub11                       28.395        58.052         0.536         0.037         0.260
  sub12                       24.463        49.072         0.450         0.034         0.218
  sub14                       21.697        44.543         0.414         0.028         0.200
  sub15                       29.696        58.821         0.572         0.042         0.270
  sub16                       19.246        38.050         0.367         0.028         0.174
  sub17                       17.687        34.653         0.330         0.026         0.156
  sub22                       95.915       186.896         1.820         0.139         0.857
  sub23                       54.382       109.539         1.141         0.076         0.527
  sub60                      354.593       680.511         7.004         0.438         3.365
  sub61                      440.069       840.656         8.197         0.570         3.956
  sub62                      450.295       873.880         8.757         0.565         4.215
  sub63                      328.398       618.659         6.511         0.464         3.040
  sub64                      451.703       836.730         8.316         0.612         3.984
  sub65                      461.380       857.960         8.545         0.619         4.099
  sub66                      259.829       485.752         5.258         0.349         2.468
  sub67                      667.509      1281.525        12.082         0.900         5.857
  sub68                      479.818       924.967         9.162         0.628         4.393
  sub69                      429.413       835.624         8.071         0.576         3.875
  sub70                      759.749      1480.829        15.227         1.076         7.188
  sub71                      296.718       581.321         6.039         0.357         2.896
  sub72                      248.910       454.215         4.636         0.321         2.234
  1                          582.783      1142.119        11.847         0.837         5.542
  2                           65.870       118.919         1.812         0.110         0.778
  ------------------------------------------------------------------------------------------
  System                    6754.471     12969.363       130.673         9.081        62.268
  
  
  ******************
  Node Depth Summary
  ******************
  
  ---------------------------------------------------------------------------------
                                 Average  Maximum  Maximum  Time of Max    Reported
                                   Depth    Depth      HGL   Occurrence   Max Depth
  Node                 Type       Meters   Meters   Meters  days hr:min      Meters
  ---------------------------------------------------------------------------------
  WS02001211           JUNCTION     0.78     0.85     5.69     0  02:04        0.85
  WS02001212           JUNCTION     0.49     0.58     5.64     0  02:05        0.58
  WS02001213           JUNCTION     0.74     0.86     5.62     0  02:03        0.86
  WS02003069           JUNCTION     0.54     0.72     5.31     0  02:03        0.72
  WS02003072           JUNCTION     0.60     0.76     5.14     0  02:04        0.76
  WS02003073           JUNCTION     0.37     0.48     4.55     0  02:04        0.48
  WS02003060           JUNCTION     0.48     0.64     5.57     0  02:03        0.64
  WS02003066           JUNCTION     0.27     0.39     5.94     0  01:58        0.39
  WS02003059           JUNCTION     0.79     0.91     5.60     0  02:03        0.91
  WS02003067           JUNCTION     0.64     0.83     6.15     0  01:57        0.83
  WS02004401           JUNCTION     0.78     1.31     7.31     0  01:55        1.26
  WS02004402           JUNCTION     0.80     1.30     7.26     0  01:55        1.25
  WS02004403           JUNCTION     0.82     1.27     7.20     0  01:55        1.22
  WS02004404           JUNCTION     0.89     1.31     7.16     0  01:55        1.26
  WS02004406           JUNCTION     0.88     1.20     7.03     0  01:55        1.17
  WS02004409           JUNCTION     0.59     0.98     6.75     0  01:57        0.98
  WS02004410           JUNCTION     0.61     0.96     6.68     0  01:57        0.96
  WS02004411           JUNCTION     0.62     0.94     6.62     0  01:58        0.94
  WS02004412           JUNCTION     0.63     0.91     6.55     0  01:57        0.91
  WS02004413           JUNCTION     0.78     1.03     6.50     0  01:57        1.03
  WS02004405           JUNCTION     0.88     1.28     7.13     0  01:55        1.23
  WS02006109           JUNCTION     0.87     1.75     8.37     0  01:55        1.75
  WS02006110           JUNCTION     0.84     1.54     8.13     0  01:55        1.52
  WS02006111           JUNCTION     0.28     1.03     7.73     0  01:55        0.94
  WS02006112           JUNCTION     0.96     1.65     7.53     0  01:55        1.61
  WS02006113           JUNCTION     0.40     1.04     7.93     0  01:55        1.00
  WS02006115           JUNCTION     0.68     1.31     7.45     0  01:55        1.26
  WS02006116           JUNCTION     0.75     1.35     7.39     0  01:55        1.30
  WS02006230           JUNCTION     0.90     1.98     8.72     0  01:56        1.98
  WS02006231           JUNCTION     0.65     1.62     8.74     0  01:56        1.60
  WS02006232           JUNCTION     0.80     1.70     8.74     0  01:56        1.70
  WS02006234           JUNCTION     0.74     1.59     8.74     0  01:55        1.58
  WS02006235           JUNCTION     0.79     1.59     8.76     0  01:56        1.58
  WS02006238           JUNCTION     0.82     1.61     8.76     0  01:55        1.60
  WS02006240           JUNCTION     0.73     1.44     8.73     0  01:56        1.44
  WS02006242           JUNCTION     0.79     1.46     8.72     0  01:56        1.45
  WS02006243           JUNCTION     0.67     1.29     8.71     0  01:56        1.29
  WS02006245           JUNCTION     0.65     1.23     8.71     0  01:53        1.22
  WS02006247           JUNCTION     0.66     1.21     8.71     0  01:53        1.20
  WS02006248           JUNCTION     0.60     1.10     8.69     0  01:53        1.10
  WS02006249           JUNCTION     0.62     1.09     8.69     0  01:53        1.09
  WS02006239           JUNCTION     0.78     1.54     8.74     0  01:56        1.53
  WS02006251           JUNCTION     0.60     1.33     9.00     0  01:54        1.17
  WS02006252           JUNCTION     0.38     0.79     9.03     0  04:55        0.73
  WS02006253           JUNCTION     0.63     1.52     9.16     0  01:54        1.20
  WS02006256           JUNCTION     1.68     2.35     9.28     0  00:18        2.35
  WS02004138           JUNCTION     0.19     0.20     7.45     0  00:00        0.19
  WS02004139           JUNCTION     0.72     0.79     5.70     0  02:05        0.79
  WS02004407           JUNCTION     0.26     0.40     6.72     0  01:56        0.40
  WS02006228           JUNCTION     0.89     1.94     8.59     0  01:56        1.94
  WS02006229           JUNCTION     0.88     2.02     8.71     0  01:56        2.01
  WS02006280           JUNCTION     0.07     0.34     8.61     0  01:55        0.32
  WS02006284           JUNCTION     0.37     0.66     9.06     0  01:54        0.66
  WS02006287           JUNCTION     0.10     0.40     9.36     0  01:54        0.40
  WSF200               JUNCTION     0.26     0.44     5.67     0  01:58        0.44
  HS02004901           JUNCTION     0.13     0.38    10.21     0  01:53        0.38
  HS02004881           JUNCTION     0.01     0.06     9.08     0  01:54        0.05
  HS02004876           JUNCTION     0.04     0.17     9.20     0  01:54        0.17
  HS02004870           JUNCTION     0.02     0.10     9.38     0  01:54        0.10
  HS02004862           JUNCTION     0.02     0.11     9.50     0  01:55        0.11
  HS02004856           JUNCTION     0.08     0.15     9.58     0  01:54        0.15
  HS02004852           JUNCTION     0.01     0.08     9.59     0  01:54        0.08
  HS02004848           JUNCTION     0.01     0.07     9.67     0  01:54        0.07
  HS02004842           JUNCTION     0.34     0.40     9.67     0  01:54        0.40
  HS02004837           JUNCTION     0.03     0.09     9.67     0  01:54        0.09
  HS02004830           JUNCTION     0.04     0.11     9.58     0  01:55        0.11
  HS02004824           JUNCTION     0.03     0.15     9.55     0  01:54        0.15
  HS02004817           JUNCTION     0.45     0.71     9.56     0  01:54        0.71
  HS02004807           JUNCTION     0.13     0.38     9.55     0  01:55        0.38
  HS02004802           JUNCTION     0.17     0.41     9.54     0  01:55        0.41
  HS02004799           JUNCTION     0.13     0.48     9.69     0  01:53        0.48
  HS02004792           JUNCTION     0.04     0.22     9.75     0  01:53        0.22
  HS02004788           JUNCTION     0.03     0.16    10.06     0  01:54        0.16
  HS02004785           JUNCTION     0.05     0.25    10.15     0  01:53        0.25
  HS02004777           JUNCTION     0.15     0.40    10.20     0  01:53        0.40
  HS02004770           JUNCTION     0.12     0.37    10.21     0  01:53        0.37
  HS02004480           JUNCTION     0.09     0.39     9.64     0  01:53        0.39
  HS02004479           JUNCTION     0.12     0.43     9.64     0  01:53        0.43
  HS02004478           JUNCTION     0.07     0.29     9.52     0  01:54        0.29
  YS02001745           JUNCTION     0.78     0.94     8.46     0  03:01        0.94
  YS02001748           JUNCTION     1.19     1.38     8.45     0  03:02        1.37
  YS02001751           JUNCTION     1.38     1.57     8.45     0  03:02        1.56
  YS02001754           JUNCTION     1.63     1.83     8.44     0  03:02        1.83
  YS02001762           JUNCTION     1.83     2.04     8.44     0  02:12        2.03
  YS02001765           JUNCTION     1.78     1.98     8.43     0  02:12        1.97
  YS02001767           JUNCTION     1.75     1.94     8.43     0  02:12        1.93
  YS02001770           JUNCTION     1.74     1.93     8.42     0  02:12        1.92
  YS02001774           JUNCTION     1.81     1.98     8.40     0  02:23        1.98
  YS02001779           JUNCTION     1.55     1.68     8.37     0  01:47        1.68
  YS02001882           JUNCTION     0.63     1.67     8.39     0  01:50        1.63
  YS02001884           JUNCTION     0.72     1.76     8.38     0  01:50        1.73
  YS02001759           JUNCTION     1.87     2.07     8.44     0  02:12        2.06
  YS02001887           JUNCTION     0.80     1.82     8.36     0  01:50        1.81
  YS02001890           JUNCTION     0.83     1.81     8.32     0  01:50        1.81
  YS02001898           JUNCTION     0.60     1.57     8.30     0  01:51        1.56
  YS02001901           JUNCTION     0.71     1.68     8.29     0  02:02        1.67
  YS02001904           JUNCTION     0.69     1.64     8.27     0  02:12        1.63
  YS02001907           JUNCTION     1.02     1.96     8.25     0  01:51        1.96
  YS02001910           JUNCTION     0.81     1.95     8.46     0  01:51        1.80
  YS02001915           JUNCTION     0.61     1.88     8.59     0  01:51        1.65
  YS02001918           JUNCTION     0.36     1.76     8.82     0  01:51        1.39
  YS02001619           JUNCTION     1.33     1.60     8.52     0  01:45        1.59
  YS02001629           JUNCTION     1.69     1.85     8.40     0  02:15        1.85
  YS02001641           JUNCTION     1.79     2.00     8.44     0  08:00        2.00
  YS02001644           JUNCTION     1.79     1.92     8.35     0  01:48        1.92
  YS02001652           JUNCTION     1.64     2.04     8.63     0  01:57        1.94
  YS02001655           JUNCTION     1.40     1.98     8.83     0  04:06        1.76
  YS02001920           JUNCTION     0.47     1.87     8.88     0  01:51        1.50
  YS02001923           JUNCTION     0.30     1.91     9.17     0  01:51        1.31
  YS02001926           JUNCTION     0.34     1.67     9.11     0  01:51        1.18
  YS02001929           JUNCTION     0.21     1.00     8.69     0  01:51        1.00
  YS02001658           JUNCTION     1.13     1.89     9.03     0  04:06        1.53
  YS02001661           JUNCTION     0.89     1.88     9.29     0  03:52        1.27
  YS02001664           JUNCTION     0.40     0.57     8.49     0  04:22        0.56
  YS02001622           JUNCTION     1.36     1.59     8.49     0  01:45        1.58
  YS02001633           JUNCTION     1.78     1.99     8.44     0  08:00        1.99
  YS02001649           JUNCTION     1.84     2.05     8.44     0  01:57        2.05
  YS02001757           JUNCTION     1.97     2.17     8.43     0  03:41        2.17
  YS02001895           JUNCTION     0.59     1.57     8.32     0  01:51        1.56
  YS02001625           JUNCTION     1.64     1.78     8.38     0  01:45        1.78
  YS02163301           JUNCTION     1.72     1.88     8.40     0  01:53        1.88
  YS02163601           JUNCTION     1.83     2.08     8.48     0  08:00        2.08
  YS02164001           JUNCTION     1.77     2.02     8.48     0  08:00        2.02
  YS02001647           JUNCTION     1.62     1.80     8.41     0  03:39        1.79
  YSB1154              JUNCTION     0.26     0.58     9.64     0  01:53        0.58
  YSB6556              JUNCTION     0.16     0.47     9.64     0  01:53        0.47
  YSB1174              JUNCTION     0.21     0.53     9.64     0  01:53        0.53
  YSB1171              JUNCTION     0.42     0.74     9.64     0  01:53        0.74
  YS02006553           JUNCTION     1.02     1.97     8.26     0  02:07        1.96
  YS02006561           JUNCTION     0.37     1.09     7.75     0  01:51        1.08
  YS02006556           JUNCTION     0.99     1.94     8.25     0  02:09        1.93
  YS02006558           JUNCTION     1.03     1.98     8.25     0  02:12        1.97
  YS02001783           JUNCTION     0.58     1.68     7.82     0  01:44        1.47
  YS02001784           JUNCTION     0.59     1.58     7.64     0  01:44        1.42
  YS02001786           JUNCTION     0.52     1.41     7.44     0  01:44        1.26
  YS02001788           JUNCTION     0.44     1.29     7.26     0  01:44        1.13
  YS02001790           JUNCTION     0.54     1.96     7.60     0  04:42        1.29
  YS02001791           JUNCTION     0.49     1.74     7.21     0  01:43        1.30
  YS02001793           JUNCTION     0.65     1.91     6.74     0  04:42        1.85
  WSC                  OUTFALL      0.37     0.48     1.15     0  02:05        0.48
  JK-storage           STORAGE      2.86     5.80     6.60     0  01:44        5.80
  CC-storage           STORAGE      1.22     1.42     8.42     0  03:00        1.42
  XR-storage           STORAGE      7.15     7.72     5.72     0  02:04        7.72
  
  
  *******************
  Node Inflow Summary
  *******************
  
  -------------------------------------------------------------------------------------------------
                                  Maximum  Maximum                  Lateral       Total        Flow
                                  Lateral    Total  Time of Max      Inflow      Inflow     Balance
                                   Inflow   Inflow   Occurrence      Volume      Volume       Error
  Node                 Type           LPS      LPS  days hr:min    10^6 ltr    10^6 ltr     Percent
  -------------------------------------------------------------------------------------------------
  WS02001211           JUNCTION      7.35   389.55     0  05:48       0.212        10.4       0.381
  WS02001212           JUNCTION      0.00   391.63     0  05:48           0        10.4       0.215
  WS02001213           JUNCTION      0.00   393.56     0  05:47           0        10.4       0.277
  WS02003069           JUNCTION      0.32  1338.85     0  02:03     0.00922        22.6       0.139
  WS02003072           JUNCTION      0.00  1338.85     0  02:04           0        22.6       0.169
  WS02003073           JUNCTION      1.82  1340.96     0  02:04      0.0524        22.6       0.191
  WS02003060           JUNCTION     16.53  1338.19     0  02:03       0.476        22.6       0.132
  WS02003066           JUNCTION      0.00   954.40     0  01:58           0        11.8       0.032
  WS02003059           JUNCTION      0.00   396.57     0  05:47           0        10.3       0.379
  WS02003067           JUNCTION      0.00   953.89     0  01:58           0        11.8       0.069
  WS02004401           JUNCTION      0.00   967.92     0  01:56           0          12       0.155
  WS02004402           JUNCTION      0.00   968.36     0  01:56           0          12       0.148
  WS02004403           JUNCTION      0.00   968.80     0  01:56           0          12       0.136
  WS02004404           JUNCTION      0.16   969.66     0  01:56     0.00467          12       0.106
  WS02004406           JUNCTION      0.00   970.35     0  01:56           0          12       0.255
  WS02004409           JUNCTION      0.00   968.32     0  01:56           0        11.9       0.111
  WS02004410           JUNCTION      0.00   957.00     0  01:57           0        11.9       0.128
  WS02004411           JUNCTION      0.00   952.31     0  01:58           0        11.9       0.134
  WS02004412           JUNCTION      0.00   953.56     0  01:58           0        11.9       0.147
  WS02004413           JUNCTION      0.00   953.67     0  01:58           0        11.9       0.226
  WS02004405           JUNCTION      0.04   969.94     0  01:56      0.0011          12       0.156
  WS02006109           JUNCTION      1.23   939.29     0  01:56      0.0354          12       0.136
  WS02006110           JUNCTION      0.00   939.12     0  01:56           0          12       0.150
  WS02006111           JUNCTION      0.00   938.58     0  01:56           0          12       0.028
  WS02006112           JUNCTION     30.57   967.56     0  01:56       0.112        12.1       0.222
  WS02006113           JUNCTION      0.00   938.87     0  01:56           0          12       0.068
  WS02006115           JUNCTION      0.00   967.38     0  01:56           0        12.1       0.142
  WS02006116           JUNCTION      0.00   968.43     0  01:56           0        12.1       0.120
  WS02006230           JUNCTION     10.28   533.95     0  06:24       0.296        8.94       0.118
  WS02006231           JUNCTION      0.00   523.53     0  06:24           0        8.65       0.093
  WS02006232           JUNCTION      0.00   523.75     0  06:24           0        8.65       0.159
  WS02006234           JUNCTION      0.00   524.32     0  06:25           0        8.66       0.079
  WS02006235           JUNCTION      0.00   524.05     0  06:24           0        8.72       0.096
  WS02006238           JUNCTION      0.00   419.79     0  07:20           0        5.44       0.131
  WS02006240           JUNCTION      0.00   417.73     0  07:20           0        5.42       0.187
  WS02006242           JUNCTION      0.00   417.51     0  07:20           0        5.42       0.237
  WS02006243           JUNCTION      0.00   417.19     0  07:20           0        5.41       0.067
  WS02006245           JUNCTION      0.00   416.95     0  07:20           0        5.41       0.166
  WS02006247           JUNCTION      0.00   417.10     0  07:20           0         5.4       0.116
  WS02006248           JUNCTION      0.00   418.13     0  07:20           0        5.41       0.074
  WS02006249           JUNCTION      0.00   495.24     0  02:20           0        6.07       0.140
  WS02006239           JUNCTION      0.00   418.75     0  07:20           0        5.43       0.111
  WS02006251           JUNCTION      0.08   493.76     0  02:20     0.00222        6.13       0.135
  WS02006252           JUNCTION      0.00   400.00     0  04:10           0        5.46       0.009
  WS02006253           JUNCTION      3.87   194.21     0  01:54      0.0129       0.665       0.404
  WS02006256           JUNCTION      0.00   983.00     0  02:00           0        11.9       0.022
  WS02004138           JUNCTION      0.00   380.00     0  00:00           0        10.3       0.066
  WS02004139           JUNCTION      0.32   394.45     0  00:00     0.00924        10.3       0.439
  WS02004407           JUNCTION      0.00   970.44     0  01:56           0        11.9       0.050
  WS02006228           JUNCTION      0.00   937.76     0  01:56           0          12       0.095
  WS02006229           JUNCTION      0.00   989.62     0  01:55           0          12       0.105
  WS02006280           JUNCTION      0.00   736.07     0  01:54           0        3.12       0.014
  WS02006284           JUNCTION      0.10   735.81     0  01:54     0.00275        3.12       0.019
  WS02006287           JUNCTION      0.00   735.61     0  01:54           0        3.12       0.023
  WSF200               JUNCTION      0.00   954.86     0  01:58           0        11.8       0.028
  HS02004901           JUNCTION     37.34    37.34     0  01:51       0.136       0.136       1.308
  HS02004881           JUNCTION     14.85   153.29     0  01:54       0.053       0.601       0.114
  HS02004876           JUNCTION     26.74   139.06     0  01:54       0.103       0.549       0.098
  HS02004870           JUNCTION     27.42   112.65     0  01:54         0.1       0.446       0.024
  HS02004862           JUNCTION     26.01    86.18     0  01:54       0.116       0.346       0.049
  HS02004856           JUNCTION     20.52    60.23     0  01:54      0.0756       0.231       0.627
  HS02004852           JUNCTION      0.00    40.37     0  01:54           0       0.155       0.035
  HS02004848           JUNCTION     56.97    56.97     0  01:56       0.261       0.261       0.017
  HS02004842           JUNCTION      0.00    18.18     0  02:06           0       0.119      12.298
  HS02004837           JUNCTION     52.39    67.87     0  01:54       0.357       0.463       0.175
  HS02004830           JUNCTION      0.15    67.98     0  01:54     0.00432       0.453       0.273
  HS02004824           JUNCTION     66.79   134.68     0  01:56       0.319       0.771       0.070
  HS02004817           JUNCTION      0.60   137.00     0  01:57      0.0173       0.788       2.161
  HS02004807           JUNCTION     50.62   184.20     0  01:55       0.184       0.956       0.458
  HS02004802           JUNCTION      0.00   183.92     0  01:56           0       0.955       0.414
  HS02004799           JUNCTION     40.40   470.73     0  01:53        0.15        1.87       0.159
  HS02004792           JUNCTION    183.39   430.97     0  01:53       0.729        1.72       0.023
  HS02004788           JUNCTION     59.53   248.79     0  01:53       0.274       0.992       0.039
  HS02004785           JUNCTION      0.15   189.55     0  01:53     0.00432        0.72       0.068
  HS02004777           JUNCTION      0.03   189.70     0  01:52    0.000864        0.72       0.727
  HS02004770           JUNCTION    153.57   190.37     0  01:52       0.587       0.722       0.428
  HS02004480           JUNCTION      0.00   554.33     0  01:53           0        2.18       0.044
  HS02004479           JUNCTION      0.00    83.75     0  01:53           0       0.323       0.228
  HS02004478           JUNCTION      0.00   735.57     0  01:54           0        3.12       0.010
  YS02001745           JUNCTION    446.25   446.25     0  02:16        3.97        3.97       0.265
  YS02001748           JUNCTION      0.04   451.63     0  02:16      0.0013        3.96       0.577
  YS02001751           JUNCTION      0.01   451.89     0  02:16    0.000317        3.94       0.612
  YS02001754           JUNCTION      0.26   452.50     0  02:16     0.00749        3.92       0.627
  YS02001762           JUNCTION      0.00   433.63     0  01:55           0        2.29       0.931
  YS02001765           JUNCTION      0.00   434.21     0  01:55           0         2.3       1.064
  YS02001767           JUNCTION      0.54   434.56     0  01:55      0.0154        2.32       1.561
  YS02001770           JUNCTION    558.16   676.93     0  02:37        4.38        5.15       0.607
  YS02001774           JUNCTION      0.00   677.01     0  02:37           0        3.59       0.693
  YS02001779           JUNCTION      0.01   677.05     0  02:37    0.000144        3.56       0.441
  YS02001882           JUNCTION      0.00    59.01     0  01:48           0       0.043       5.796
  YS02001884           JUNCTION      0.00    66.48     0  01:46           0       0.082       7.810
  YS02001759           JUNCTION    542.57   879.02     0  01:56        4.05        5.55       0.412
  YS02001887           JUNCTION    676.21   677.55     0  02:13        4.58        4.62       0.182
  YS02001890           JUNCTION      0.00   677.49     0  02:13           0        4.57       0.205
  YS02001898           JUNCTION      0.00   521.19     0  01:51           0        4.29       0.057
  YS02001901           JUNCTION      0.00   521.72     0  01:51           0        4.28       0.168
  YS02001904           JUNCTION      0.00   521.76     0  01:51           0        4.28       0.152
  YS02001907           JUNCTION      0.00  1175.45     0  01:52           0          10       0.237
  YS02001910           JUNCTION      0.00   661.21     0  01:52           0        5.77       0.197
  YS02001915           JUNCTION    394.70   660.52     0  01:52         3.3        5.83       0.104
  YS02001918           JUNCTION      0.00   380.18     0  01:52           0        2.56       0.051
  YS02001619           JUNCTION    388.44   388.44     0  02:16        3.32        3.32       0.366
  YS02001629           JUNCTION      0.00   221.29     0  01:48           0        1.44       2.036
  YS02001641           JUNCTION      0.00   455.36     0  01:48           0        5.13       0.407
  YS02001644           JUNCTION    424.99  1502.51     0  02:36        3.84        13.3       0.195
  YS02001652           JUNCTION      0.00   516.82     0  02:12           0        3.45       0.665
  YS02001655           JUNCTION      0.15   516.33     0  02:12     0.00443        3.48       0.728
  YS02001920           JUNCTION      2.87   379.26     0  01:52      0.0827        2.54       0.112
  YS02001923           JUNCTION      0.04   316.06     0  01:53     0.00109        2.44       0.047
  YS02001926           JUNCTION      0.05   338.75     0  01:50      0.0015        2.41       0.110
  YS02001929           JUNCTION    206.66   206.66     0  03:01        2.39         2.4       0.024
  YS02001658           JUNCTION      0.00   515.78     0  02:12           0         3.5       0.699
  YS02001661           JUNCTION      0.00   755.94     0  01:53           0        3.89      -0.200
  YS02001664           JUNCTION    496.40   496.40     0  02:16        3.49        3.89       0.138
  YS02001622           JUNCTION      0.00   389.09     0  02:16           0        3.31       0.967
  YS02001633           JUNCTION    431.52   457.40     0  01:48        3.95        5.27       0.607
  YS02001649           JUNCTION      0.00  1000.35     0  01:49           0        6.89       0.544
  YS02001757           JUNCTION      0.00  2147.43     0  01:55           0        11.1       0.826
  YS02001895           JUNCTION      0.00   521.72     0  01:51           0        4.28       0.129
  YS02001625           JUNCTION      0.00   434.89     0  02:16           0        3.35       1.178
  YS02163301           JUNCTION      0.00   221.00     0  01:48           0        1.44       1.686
  YS02163601           JUNCTION      0.11   457.26     0  01:48     0.00317        5.14       0.588
  YS02164001           JUNCTION      0.00   456.51     0  01:48           0        5.13       0.391
  YS02001647           JUNCTION      0.00   741.88     0  03:01           0         5.9       0.478
  YSB1154              JUNCTION     46.91    46.91     0  01:52        0.18       0.181       0.804
  YSB6556              JUNCTION      0.00    46.63     0  01:52           0       0.182       0.694
  YSB1174              JUNCTION     39.22    39.22     0  01:50       0.134       0.134       0.961
  YSB1171              JUNCTION      0.00    84.01     0  01:52           0       0.322       2.010
  YS02006553           JUNCTION      0.00   717.32     0  03:35           0        7.33       0.212
  YS02006561           JUNCTION      0.00   982.86     0  02:11           0        11.5       0.005
  YS02006556           JUNCTION      0.00   717.62     0  03:35           0        7.34       0.159
  YS02006558           JUNCTION    590.63   983.89     0  02:18        4.25        11.6       0.044
  YS02001783           JUNCTION      0.00   982.44     0  02:10           0        11.5       0.018
  YS02001784           JUNCTION      1.06   983.88     0  02:12      0.0305        11.6       0.031
  YS02001786           JUNCTION      0.06   983.41     0  02:14     0.00162        11.6       0.030
  YS02001788           JUNCTION      0.07   983.53     0  02:16     0.00204        11.6       0.018
  YS02001790           JUNCTION      0.15   984.06     0  02:16     0.00446        11.6       0.011
  YS02001791           JUNCTION      0.00   983.82     0  02:16           0        11.6       0.000
  YS02001793           JUNCTION      0.00   984.04     0  02:16           0        11.6       0.035
  WSC                  OUTFALL       0.00  1341.33     0  02:05           0        22.5       0.000
  JK-storage           STORAGE       0.00   984.51     0  02:16           0        11.7      -9.385
  CC-storage           STORAGE       0.00  2149.82     0  01:55           0        9.04       0.695
  XR-storage           STORAGE    1054.62  1054.62     0  03:01        15.7        16.3      -0.001
  
  
  **********************
  Node Surcharge Summary
  **********************
  
  Surcharging occurs when water rises above the top of the highest conduit.
  ---------------------------------------------------------------------
                                               Max. Height   Min. Depth
                                   Hours       Above Crown    Below Rim
  Node                 Type      Surcharged         Meters       Meters
  ---------------------------------------------------------------------
  WS02004401           JUNCTION        1.30          0.308        1.352
  WS02004402           JUNCTION        1.34          0.296        1.444
  WS02004403           JUNCTION        1.36          0.271        1.759
  WS02004404           JUNCTION        1.55          0.311        2.469
  WS02004406           JUNCTION        1.50          0.204        2.246
  WS02004413           JUNCTION        0.41          0.031        2.169
  WS02004405           JUNCTION        1.53          0.279        2.521
  WS02006109           JUNCTION        4.65          0.932        0.888
  WS02006110           JUNCTION        2.84          0.633        1.217
  WS02006111           JUNCTION        0.29          0.218        1.652
  WS02006112           JUNCTION        3.29          0.649        1.031
  WS02006113           JUNCTION        0.34          0.236        1.694
  WS02006115           JUNCTION        0.71          0.300        1.950
  WS02006116           JUNCTION        0.78          0.285        2.005
  WS02006230           JUNCTION        2.54          0.900        0.670
  WS02006231           JUNCTION        3.10          0.909        0.621
  WS02006232           JUNCTION        4.61          0.999        0.481
  WS02006234           JUNCTION        4.22          0.867        0.373
  WS02006235           JUNCTION        4.39          0.883        0.407
  WS02006238           JUNCTION        4.46          0.891        0.539
  WS02006240           JUNCTION        4.15          0.729        0.661
  WS02006242           JUNCTION        4.28          0.726        0.094
  WS02006243           JUNCTION        3.62          0.583        0.187
  WS02006245           JUNCTION        3.27          0.517        0.333
  WS02006247           JUNCTION        3.29          0.502        0.258
  WS02006248           JUNCTION        2.95          0.380        0.000
  WS02006249           JUNCTION        3.02          0.390        0.000
  WS02006239           JUNCTION        4.26          0.795        0.495
  WS02006251           JUNCTION        1.94          0.303        0.877
  WS02006252           JUNCTION        3.33          0.392        0.708
  WS02006253           JUNCTION        2.18          0.478        2.002
  WS02006256           JUNCTION        7.21          2.050        0.000
  WS02006228           JUNCTION        4.62          1.109        1.091
  HS02004817           JUNCTION        0.14          0.011        1.729
  YS02001748           JUNCTION        6.21          0.297        0.893
  YS02001751           JUNCTION        6.25          0.568        0.632
  YS02001754           JUNCTION        6.30          0.781        0.369
  YS02001762           JUNCTION        6.36          1.037        0.113
  YS02001765           JUNCTION        6.35          0.983        0.117
  YS02001767           JUNCTION        6.34          0.940        0.090
  YS02001770           JUNCTION        6.34          0.896        0.024
  YS02001774           JUNCTION        6.35          0.980        0.070
  YS02001779           JUNCTION        6.30          0.680        0.000
  YS02001882           JUNCTION        1.80          0.671        0.159
  YS02001884           JUNCTION        1.82          0.702        0.168
  YS02001759           JUNCTION        6.37          1.071        0.139
  YS02001887           JUNCTION        1.87          0.772        0.178
  YS02001890           JUNCTION        1.89          0.760        0.000
  YS02001898           JUNCTION        1.78          0.538        0.202
  YS02001901           JUNCTION        1.85          0.677        0.193
  YS02001904           JUNCTION        1.83          0.641        0.209
  YS02001907           JUNCTION        2.38          0.950        0.000
  YS02001910           JUNCTION        1.93          0.948        0.152
  YS02001915           JUNCTION        1.79          0.876        0.124
  YS02001918           JUNCTION        1.65          0.757        0.053
  YS02001619           JUNCTION        6.26          0.596        0.014
  YS02001629           JUNCTION        6.25          0.468        0.002
  YS02001641           JUNCTION        6.35          1.005        0.095
  YS02001644           JUNCTION        6.35          0.920        0.000
  YS02001652           JUNCTION        6.32          1.008        0.122
  YS02001655           JUNCTION        6.27          0.978        0.222
  YS02001920           JUNCTION        1.68          0.874        0.266
  YS02001923           JUNCTION        0.01          0.698        0.122
  YS02001926           JUNCTION        0.01          0.668        0.232
  YS02001929           JUNCTION        0.01          0.000        0.780
  YS02001658           JUNCTION        6.21          0.890        0.410
  YS02001661           JUNCTION        0.14          0.813        0.577
  YS02001622           JUNCTION        6.26          0.585        0.035
  YS02001633           JUNCTION        6.34          0.969        0.091
  YS02001649           JUNCTION        6.36          1.050        0.000
  YS02001757           JUNCTION        6.39          1.171        0.039
  YS02001895           JUNCTION        1.78          0.568        0.182
  YS02001625           JUNCTION        6.32          0.780        0.000
  YS02163301           JUNCTION        6.33          0.883        0.147
  YS02163601           JUNCTION        6.36          1.080        0.000
  YS02164001           JUNCTION        6.34          1.024        0.076
  YS02001647           JUNCTION        6.32          0.798        0.102
  YS02006553           JUNCTION        2.46          0.971        0.219
  YS02006561           JUNCTION        1.69          0.293        0.857
  YS02006556           JUNCTION        2.10          0.896        0.454
  YS02006558           JUNCTION        2.07          0.879        0.521
  YS02001783           JUNCTION        1.94          0.883        0.717
  YS02001784           JUNCTION        1.91          0.776        0.714
  YS02001786           JUNCTION        1.86          0.615        0.815
  YS02001788           JUNCTION        1.81          0.487        0.993
  YS02001790           JUNCTION        2.41          1.157        0.000
  YS02001791           JUNCTION        2.50          0.937        0.983
  YS02001793           JUNCTION        2.74          0.910        1.690
  
  
  *********************
  Node Flooding Summary
  *********************
  
  Flooding refers to all water that overflows a node, whether it ponds or not.
  --------------------------------------------------------------------------
                                                             Total   Maximum
                                 Maximum   Time of Max       Flood    Ponded
                        Hours       Rate    Occurrence      Volume     Depth
  Node                 Flooded       LPS   days hr:min    10^6 ltr    Meters
  --------------------------------------------------------------------------
  WS02006248              0.17     58.85      0  01:57       0.013     0.000
  WS02006249              2.06    313.09      0  02:20       0.656     0.000
  WS02006256              4.33    829.42      0  02:00       8.522     0.000
  YS02001779              3.23    677.05      0  02:37       3.543     0.000
  YS02001890              0.81    161.12      0  02:12       0.273     0.000
  YS02001907              1.53    715.59      0  02:16       2.682     0.000
  YS02001644              4.99   1502.50      0  02:36      11.747     0.000
  YS02001649              0.02     27.27      0  03:52       0.001     0.000
  YS02001625              2.14    434.79      0  02:16       1.965     0.000
  YS02163601              0.01      0.17      0  08:00       0.000     0.000
  YS02001790              0.01    156.90      0  04:42       0.000     0.000
  JK-storage              0.62    862.18      0  01:50       0.826     0.000
  XR-storage              4.73    674.60      0  03:01       5.212     0.000
  
  
  **********************
  Storage Volume Summary
  **********************
  
  --------------------------------------------------------------------------------------------------
                         Average     Avg  Evap Exfil       Maximum     Max    Time of Max    Maximum
                          Volume    Pcnt  Pcnt  Pcnt        Volume    Pcnt     Occurrence    Outflow
  Storage Unit           1000 m3    Full  Loss  Loss       1000 m3    Full    days hr:min        LPS
  --------------------------------------------------------------------------------------------------
  JK-storage               0.144      49     0     0         0.291     100       0  01:44     983.00
  CC-storage               3.393      22     0     0         3.960      25       0  03:00     400.00
  XR-storage               0.858      93     0     0         0.926     100       0  02:04     380.00
  
  
  ***********************
  Outfall Loading Summary
  ***********************
  
  ---------------------------------------------------------------------------------------------------------------------------------
                         Flow       Avg       Max       Total         Total         Total         Total         Total         Total
                         Freq      Flow      Flow      Volume           COD            SS            TN            TP         NH4-N
  Outfall Node           Pcnt       LPS       LPS    10^6 ltr            kg            kg            kg            kg            kg
  ---------------------------------------------------------------------------------------------------------------------------------
  WSC                  100.00    850.69   1341.33      22.524      2723.441      4873.500       146.918        16.732        87.394
  ---------------------------------------------------------------------------------------------------------------------------------
  System               100.00    850.69   1341.33      22.524      2723.441      4873.500       146.918        16.732        87.394
  
  
  ********************
  Link Flow Summary
  ********************
  
  -----------------------------------------------------------------------------
                                 Maximum  Time of Max   Maximum    Max/    Max/
                                  |Flow|   Occurrence   |Veloc|    Full    Full
  Link                 Type          LPS  days hr:min     m/sec    Flow   Depth
  -----------------------------------------------------------------------------
  WS02003066WSF200     CONDUIT    954.86     0  01:58      3.01    0.16    0.32
  WS02006287WS02006284 CONDUIT    735.71     0  01:54      2.45    0.34    0.41
  WS02006284WS02006280 CONDUIT    736.07     0  01:54      2.68    0.31    0.38
  WS02006280WS02006229 CONDUIT    758.12     0  01:55      4.30    0.16    0.58
  WS02006229WS02006228 CONDUIT    937.76     0  01:56      1.87    3.11    1.00
  WS02006256WS02006235 CONDUIT    259.49     0  00:18      3.67    2.75    1.00
  WS02006253WS02006251 CONDUIT    196.34     0  01:54      0.76    0.59    1.00
  WS02006252WS02006251 CONDUIT    403.74     0  06:24      3.21    1.48    1.00
  WS02006251WS02006249 CONDUIT    495.24     0  02:20      1.29    1.43    1.00
  WS02006249WS02006248 CONDUIT    418.13     0  07:20      1.19    2.29    1.00
  WS02006248WS02006247 CONDUIT    417.10     0  07:20      1.16    0.91    1.00
  WS02006247WS02006245 CONDUIT    416.95     0  07:20      1.14    3.31    1.00
  WS02006245WS02006243 CONDUIT    417.19     0  07:20      1.17    1.23    1.00
  WS02006243WS02006242 CONDUIT    417.51     0  07:20      1.08    0.89    1.00
  WS02006242WS02006240 CONDUIT    417.73     0  07:20      1.09    1.66    1.00
  WS02006240WS02006239 CONDUIT    418.75     0  07:20      1.09    1.32    1.00
  WS02006239WS02006238 CONDUIT    419.79     0  07:20      1.09    1.34    1.00
  WS02006238WS02006235 CONDUIT    421.23     0  07:20      1.09    0.94    1.00
  WS02006235WS02006234 CONDUIT    524.32     0  06:25      1.36    5.53    1.00
  WS02006234WS02006232 CONDUIT    523.75     0  06:24      1.36    1.06    1.00
  WS02006232WS02006231 CONDUIT    523.53     0  06:24      1.36    1.10    1.00
  WS02006231WS02006230 CONDUIT    523.67     0  06:24      1.47    7.94    1.00
  WS02006230WS02006229 CONDUIT    536.81     0  06:24      1.39   11.95    1.00
  WS02006228WS02006109 CONDUIT    938.06     0  01:56      1.87    4.10    1.00
  WS02006116WS02004401 CONDUIT    967.92     0  01:56      1.23    1.33    1.00
  WS02006115WS02006116 CONDUIT    968.43     0  01:56      1.23    1.24    1.00
  WS02006113WS02006111 CONDUIT    938.58     0  01:56      2.59    1.13    1.00
  WS02006112WS02006115 CONDUIT    967.38     0  01:56      1.23    0.57    1.00
  WS02006111WS02006112 CONDUIT    938.80     0  01:56      1.87    0.45    1.00
  WS02006110WS02006113 CONDUIT    938.87     0  01:56      1.87    0.85    1.00
  WS02006109WS02006110 CONDUIT    939.12     0  01:56      1.87    1.81    1.00
  WS02004411WS02004412 CONDUIT    953.56     0  01:58      1.26    1.35    0.93
  WS02004401WS02004402 CONDUIT    968.36     0  01:56      1.23    1.16    1.00
  WS02004413WS02003067 CONDUIT    953.89     0  01:58      1.57    0.41    0.72
  WS02004412WS02004413 CONDUIT    953.67     0  01:58      1.23    0.64    0.96
  WS02004410WS02004411 CONDUIT    952.31     0  01:58      1.24    1.30    0.95
  WS02004409WS02004410 CONDUIT    957.00     0  01:57      1.24    1.24    0.97
  WS02004407WS02004409 CONDUIT    968.32     0  01:56      1.73    0.34    0.69
  WS02004406WS02004407 CONDUIT    970.44     0  01:56      1.65    0.43    0.70
  WS02004405WS02004406 CONDUIT    970.35     0  01:56      1.24    1.91    1.00
  WS02004404WS02004405 CONDUIT    969.90     0  01:56      1.23    9.50    1.00
  WS02004403WS02004404 CONDUIT    969.50     0  01:56      1.23    0.70    1.00
  WS02004402WS02004403 CONDUIT    968.80     0  01:56      1.23    1.39    1.00
  WS02004139WS02001211 CONDUIT    382.21     0  05:48      0.90    0.48    0.64
  WS02004138WS02004139 CONDUIT    394.13     0  00:00      3.62    0.08    0.47
  WS02003067WS02003066 CONDUIT    954.40     0  01:58      1.66    0.31    0.51
  WS02001213WS02003059 CONDUIT    396.57     0  05:47      0.89    0.65    0.87
  WS02001212WS02001213 CONDUIT    393.56     0  05:47      1.32    0.61    0.56
  WS02001211WS02001212 CONDUIT    391.63     0  05:48      0.78    0.30    0.71
  WS02003072WS02003073 CONDUIT   1339.14     0  02:04      1.96    2.89    0.58
  WS02003069WS02003072 CONDUIT   1338.85     0  02:04      1.82    0.64    0.62
  WS02003060WS02003069 CONDUIT   1338.53     0  02:03      2.03    0.52    0.57
  WS02003059WS02003060 CONDUIT    400.31     0  05:46      0.95    0.26    0.77
  HS02004901HS02004770 CONDUIT     36.83     0  01:52      0.10    0.14    0.54
  HS02004876HS02004881 CONDUIT    139.06     0  01:54      1.26    1.48    0.16
  HS02004870HS02004876 CONDUIT    112.62     0  01:54      0.85    0.07    0.19
  HS02004842HS02004848 CONDUIT     18.18     0  02:06      0.08    0.01    0.34
  HS02004837HS02004842 CONDUIT     18.64     0  02:07      0.42    0.01    0.35
  HS02004830HS02004837 CONDUIT     67.83     0  01:54      0.68    0.07    0.14
  HS02004824HS02004830 CONDUIT     68.04     0  01:56      0.62    0.09    0.18
  HS02004817HS02004824 CONDUIT    136.40     0  01:57      0.32    0.06    0.60
  HS02004770HS02004777 CONDUIT    189.67     0  01:52      0.49    0.35    0.55
  HS02004799HS02004480 CONDUIT    470.62     0  01:53      1.09    0.59    0.62
  HS02004792HS02004799 CONDUIT    430.86     0  01:53      1.22    0.26    0.50
  HS02004788HS02004792 CONDUIT    248.72     0  01:54      1.29    0.16    0.28
  HS02004785HS02004788 CONDUIT    189.52     0  01:53      0.92    1.43    0.30
  HS02004777HS02004785 CONDUIT    189.40     0  01:53      0.59    0.23    0.46
  HS02004480HS02004478 CONDUIT    554.36     0  01:53      1.59    2.33    0.50
  HS02004479HS02004480 CONDUIT     83.72     0  01:53      0.37    0.08    0.59
  HS02004862HS02004870 CONDUIT     86.17     0  01:55      0.82    0.09    0.15
  HS02004848HS02004852 CONDUIT     40.37     0  01:54      0.54    0.05    0.11
  HS02004856HS02004862 CONDUIT     60.18     0  01:54      0.61    0.06    0.14
  HS02004852HS02004856 CONDUIT     40.43     0  01:55      0.35    0.05    0.17
  HS02004802HS02004478 CONDUIT    184.72     0  01:57      0.53    0.16    0.50
  HS02004478WS02006287 CONDUIT    735.61     0  01:54      2.18    0.21    0.38
  HS02004817HS02004807 CONDUIT    137.25     0  01:57      0.26    0.08    0.77
  HS02004807HS02004802 CONDUIT    183.92     0  01:56      0.47    0.35    0.56
  YS02001759YS02001757 CONDUIT    877.89     0  01:56      1.12    0.62    1.00
  YS02001762YS02001759 CONDUIT    434.60     0  01:55      0.55    0.50    1.00
  YS02001765YS02001762 CONDUIT    433.63     0  01:55      0.55    0.41    1.00
  YS02001770YS02001767 CONDUIT    434.03     0  01:55      0.55    1.72    1.00
  YS02001774YS02001770 CONDUIT    677.01     0  02:37      0.86    0.43    1.00
  YS02001779YS02001774 CONDUIT    677.05     0  02:37      0.86    0.34    1.00
  YS02001649YS02001757 CONDUIT   1000.40     0  01:49      1.27    0.61    1.00
  YS02001767YS02001765 CONDUIT    434.21     0  01:55      0.55    0.55    1.00
  YS02006561YS02001783 CONDUIT    982.44     0  02:10      2.15    0.51    1.00
  YS02001783YS02001784 CONDUIT    982.82     0  02:12      1.96    1.35    1.00
  YS02001784YS02001785 CONDUIT    983.35     0  02:14      1.96    2.29    1.00
  YS02001788YS02001790 CONDUIT    983.90     0  02:16      2.44    0.73    1.00
  YS02001790YS02001791 CONDUIT    983.82     0  02:16      2.91    1.07    1.00
  YS02001791YS02001793 CONDUIT    984.04     0  02:16      5.76    0.42    1.00
  YS02001910YS02001907 CONDUIT    660.91     0  01:52      0.84    0.37    1.00
  YS02001786YS02001788 CONDUIT    983.46     0  02:16      2.31    1.89    1.00
  YS02001915YS02001910 CONDUIT    661.21     0  01:52      0.84    0.33    1.00
  YS02001918YS02001915 CONDUIT    380.94     0  01:52      0.49    0.21    1.00
  YS02001923YS02001920 CONDUIT    376.39     0  01:52      0.82    0.17    1.00
  YS02001926YS02001923 CONDUIT    316.02     0  01:53      0.92    0.45    1.00
  YS02001929YS02001926 CONDUIT    267.73     0  01:52      0.98    0.13    1.00
  YS02001920YS02001918 CONDUIT    380.18     0  01:52      0.77    0.37    1.00
  YS02001629YS02163301 CONDUIT    221.00     0  01:48      0.28    0.27    1.00
  YS02001619YS02001622 CONDUIT    389.09     0  02:16      0.74    0.57    1.00
  YS02001622YS02001625 CONDUIT    388.72     0  02:16      0.49    0.21    1.00
  YS02001625YS02001629 CONDUIT    221.29     0  01:48      0.29    0.11    1.00
  YS02163301YS02001633 CONDUIT    221.91     0  01:47      0.28    0.21    1.00
  YS02163601YS02164001 CONDUIT    456.51     0  01:48      0.58    0.40    1.00
  YS02164001YS02001641 CONDUIT    455.36     0  01:48      0.58    0.62    1.00
  YS02001641YS02001644 CONDUIT    456.40     0  01:48      0.58    1.48    1.00
  YS02001647YS02001649 CONDUIT    741.88     0  03:01      0.94    0.39    1.00
  YS02006553YS02006556 CONDUIT    717.62     0  03:35      0.91    0.61    1.00
  YS02006556YS02006558 CONDUIT    717.52     0  03:35      0.91    0.57    1.00
  YSB6556YSB1171       CONDUIT     46.63     0  01:54      0.14    0.05    0.84
  YS02001907YS02006553 CONDUIT    717.32     0  03:35      0.80    0.84    1.00
  YS02006558YS02006561 CONDUIT    982.86     0  02:11      3.48    2.17    1.00
  YS02001633YS02163601 CONDUIT    457.15     0  01:48      0.58    0.48    1.00
  YS02001644YS02001647 CONDUIT    741.89     0  03:01      0.94    0.44    1.00
  YS02001745YS02001748 CONDUIT    451.58     0  02:16      1.67    0.17    0.97
  YS02001748YS02001751 CONDUIT    451.88     0  02:16      1.21    0.23    1.00
  YS02001751YS02001754 CONDUIT    452.24     0  02:16      1.02    0.22    1.00
  YS02001754YS02001757 CONDUIT    452.01     0  02:16      0.58    0.18    1.00
  YS02001882YS02001884 CONDUIT     59.01     0  01:48      0.16    0.07    1.00
  YS02001884YS02001887 CONDUIT     66.48     0  01:46      0.12    0.09    1.00
  YS02001890YS02001895 CONDUIT    521.72     0  01:51      0.66    0.24    1.00
  YS02001895YS02001898 CONDUIT    521.19     0  01:51      0.66    0.90    1.00
  YS02001898YS02001901 CONDUIT    521.72     0  01:51      0.66    0.34    1.00
  YS02001901YS02001904 CONDUIT    521.76     0  01:51      0.66    0.81    1.00
  YS02001904YS02001907 CONDUIT    520.84     0  01:51      0.66    0.18    1.00
  YS02001887YS02001890 CONDUIT    677.49     0  02:13      0.86    1.16    1.00
  YS02001652YS02001649 CONDUIT    516.74     0  02:12      0.71    0.26    1.00
  YS02001655YS02001652 CONDUIT    516.82     0  02:12      1.09    0.25    1.00
  YS02001658YS02001655 CONDUIT    516.18     0  02:12      1.41    0.22    1.00
  YS02001661YS02001658 CONDUIT    515.78     0  02:12      1.78    0.20    1.00
  YS02001664YS02001661 CONDUIT    755.94     0  01:53      1.69    0.24    0.76
  YSB1154YSB6556       CONDUIT     46.63     0  01:52      0.16    0.08    0.75
  YSB1174YSB1171       CONDUIT     38.39     0  01:50      0.11    0.06    0.87
  YSB1171HS02004479    CONDUIT     83.75     0  01:53      0.54    0.06    0.70
  HS02004881HS02006253 CONDUIT    157.81     0  01:54      2.75    0.03    0.54
  YS02001793JiankangQianchi CONDUIT    984.51     0  02:16     16.45    0.08    1.00
  YS02001757CaochengTiaoxuchi CONDUIT   2149.82     0  01:55      3.55    0.94    1.00
  WSF200WS02003060     CONDUIT    955.58     0  01:58      1.97    0.21    0.45
  1                    CONDUIT   1341.33     0  02:05      3.59    0.47    0.48
  CC-Pump-1            PUMP       200.00     0  02:20              1.00
  CC-Pump-2            PUMP       200.00     0  04:10              1.00
  JK-Pump-1            PUMP       300.00     0  02:00              1.00
  JK-Pump-2            PUMP       683.00     0  02:00              1.00
  XR-Pump-1            PUMP        95.00     0  00:00              1.00
  XR-Pump-2            PUMP        95.00     0  00:00              1.00
  XR-Pump-3            PUMP        95.00     0  00:00              1.00
  XR-Pump-4            PUMP        95.00     0  00:00              1.00
  
  
  ***************************
  Flow Classification Summary
  ***************************
  
  -------------------------------------------------------------------------------------
                      Adjusted    ---------- Fraction of Time in Flow Class ---------- 
                       /Actual         Up    Down  Sub   Sup   Up    Down  Norm  Inlet 
  Conduit               Length    Dry  Dry   Dry   Crit  Crit  Crit  Crit  Ltd   Ctrl  
  -------------------------------------------------------------------------------------
  WS02003066WSF200        1.00   0.00  0.02  0.00  0.00  0.97  0.00  0.00  0.49  0.00
  WS02006287WS02006284    1.00   0.03  0.01  0.00  0.64  0.32  0.00  0.00  0.64  0.00
  WS02006284WS02006280    1.00   0.03  0.00  0.00  0.00  0.00  0.00  0.97  0.00  0.00
  WS02006280WS02006229    1.00   0.03  0.00  0.00  0.02  0.03  0.00  0.92  0.02  0.00
  WS02006229WS02006228    1.00   0.00  0.00  0.00  1.00  0.00  0.00  0.00  0.00  0.00
  WS02006256WS02006235    1.00   0.00  0.00  0.00  1.00  0.00  0.00  0.00  0.00  0.00
  WS02006253WS02006251    1.00   0.01  0.02  0.00  0.97  0.00  0.01  0.00  0.00  0.00
  WS02006252WS02006251    1.00   0.09  0.00  0.00  0.21  0.00  0.70  0.00  0.00  0.00
  WS02006251WS02006249    1.00   0.00  0.00  0.00  1.00  0.00  0.00  0.00  0.15  0.00
  WS02006249WS02006248    1.00   0.00  0.00  0.00  0.95  0.00  0.04  0.00  0.00  0.00
  WS02006248WS02006247    1.00   0.00  0.00  0.00  0.99  0.00  0.00  0.01  0.06  0.00
  WS02006247WS02006245    1.00   0.01  0.00  0.00  0.99  0.00  0.00  0.01  0.00  0.00
  WS02006245WS02006243    1.00   0.01  0.00  0.00  0.97  0.00  0.00  0.02  0.01  0.00
  WS02006243WS02006242    1.00   0.01  0.00  0.00  0.99  0.00  0.00  0.00  0.13  0.00
  WS02006242WS02006240    1.00   0.01  0.00  0.00  0.99  0.00  0.00  0.00  0.00  0.00
  WS02006240WS02006239    1.00   0.01  0.00  0.00  0.97  0.00  0.00  0.03  0.01  0.00
  WS02006239WS02006238    1.00   0.01  0.00  0.00  0.99  0.00  0.00  0.00  0.07  0.00
  WS02006238WS02006235    1.00   0.00  0.00  0.00  0.99  0.00  0.00  0.00  0.00  0.00
  WS02006235WS02006234    1.00   0.00  0.00  0.00  0.98  0.00  0.02  0.00  0.00  0.00
  WS02006234WS02006232    1.00   0.01  0.00  0.00  0.99  0.00  0.00  0.00  0.02  0.00
  WS02006232WS02006231    1.00   0.01  0.00  0.00  0.99  0.00  0.00  0.00  0.00  0.00
  WS02006231WS02006230    1.00   0.01  0.00  0.00  0.72  0.00  0.27  0.00  0.00  0.00
  WS02006230WS02006229    1.00   0.00  0.00  0.00  0.99  0.00  0.00  0.01  0.00  0.00
  WS02006228WS02006109    1.00   0.00  0.00  0.00  1.00  0.00  0.00  0.00  0.00  0.00
  WS02006116WS02004401    1.00   0.01  0.00  0.00  0.99  0.00  0.00  0.00  0.00  0.00
  WS02006115WS02006116    1.00   0.01  0.00  0.00  0.98  0.00  0.00  0.00  0.00  0.00
  WS02006113WS02006111    1.00   0.01  0.00  0.00  0.06  0.93  0.00  0.00  0.13  0.00
  WS02006112WS02006115    1.00   0.01  0.00  0.00  0.99  0.00  0.00  0.00  0.00  0.00
  WS02006111WS02006112    1.00   0.01  0.00  0.00  0.99  0.00  0.00  0.00  0.77  0.00
  WS02006110WS02006113    1.00   0.00  0.01  0.00  0.99  0.00  0.00  0.00  0.00  0.00
  WS02006109WS02006110    1.00   0.00  0.00  0.00  0.99  0.00  0.00  0.00  0.00  0.00
  WS02004411WS02004412    1.00   0.02  0.00  0.00  0.98  0.00  0.00  0.00  0.00  0.00
  WS02004401WS02004402    1.00   0.01  0.00  0.00  0.99  0.00  0.00  0.00  0.00  0.00
  WS02004413WS02003067    1.00   0.02  0.00  0.00  0.00  0.00  0.98  0.00  0.00  0.00
  WS02004412WS02004413    1.00   0.02  0.00  0.00  0.98  0.00  0.00  0.00  0.00  0.00
  WS02004410WS02004411    1.00   0.02  0.00  0.00  0.98  0.00  0.00  0.00  0.00  0.00
  WS02004409WS02004410    1.00   0.02  0.00  0.00  0.98  0.00  0.00  0.00  0.00  0.00
  WS02004407WS02004409    1.00   0.02  0.00  0.00  0.98  0.00  0.00  0.00  0.93  0.00
  WS02004406WS02004407    1.00   0.00  0.02  0.00  0.98  0.00  0.00  0.00  0.00  0.00
  WS02004405WS02004406    1.00   0.00  0.00  0.00  1.00  0.00  0.00  0.00  0.03  0.00
  WS02004404WS02004405    1.00   0.00  0.00  0.00  1.00  0.00  0.00  0.00  0.00  0.00
  WS02004403WS02004404    1.00   0.00  0.01  0.00  0.99  0.00  0.00  0.00  0.00  0.00
  WS02004402WS02004403    1.00   0.01  0.00  0.00  0.99  0.00  0.00  0.00  0.00  0.00
  WS02004139WS02001211    1.00   0.00  0.00  0.00  1.00  0.00  0.00  0.00  0.00  0.00
  WS02004138WS02004139    1.00   0.00  0.00  0.00  1.00  0.00  0.00  0.00  1.00  0.00
  WS02003067WS02003066    1.00   0.02  0.00  0.00  0.97  0.00  0.00  0.00  0.00  0.00
  WS02001213WS02003059    1.00   0.00  0.00  0.00  1.00  0.00  0.00  0.00  0.00  0.00
  WS02001212WS02001213    1.00   0.00  0.00  0.00  0.93  0.00  0.07  0.00  0.00  0.00
  WS02001211WS02001212    1.00   0.00  0.00  0.00  1.00  0.00  0.00  0.00  0.00  0.00
  WS02003072WS02003073    1.00   0.00  0.00  0.00  0.00  0.00  0.00  1.00  0.00  0.00
  WS02003069WS02003072    1.00   0.00  0.00  0.00  1.00  0.00  0.00  0.00  0.10  0.00
  WS02003060WS02003069    1.00   0.00  0.00  0.00  0.99  0.01  0.00  0.00  0.08  0.00
  WS02003059WS02003060    1.00   0.00  0.00  0.00  1.00  0.00  0.00  0.00  0.00  0.00
  HS02004901HS02004770    1.00   0.03  0.00  0.00  0.97  0.00  0.00  0.00  0.00  0.00
  HS02004876HS02004881    1.00   0.00  0.00  0.00  0.92  0.08  0.00  0.00  0.00  0.00
  HS02004870HS02004876    1.00   0.00  0.00  0.00  1.00  0.00  0.00  0.00  0.95  0.00
  HS02004842HS02004848    1.00   0.00  0.03  0.00  0.97  0.00  0.00  0.00  0.57  0.00
  HS02004837HS02004842    1.00   0.00  0.00  0.00  1.00  0.00  0.00  0.00  0.11  0.00
  HS02004830HS02004837    1.00   0.00  0.00  0.00  1.00  0.00  0.00  0.00  0.99  0.00
  HS02004824HS02004830    1.00   0.00  0.00  0.00  1.00  0.00  0.00  0.00  0.03  0.00
  HS02004817HS02004824    1.00   0.00  0.00  0.00  1.00  0.00  0.00  0.00  0.92  0.00
  HS02004770HS02004777    1.00   0.00  0.03  0.00  0.97  0.00  0.00  0.00  0.02  0.00
  HS02004799HS02004480    1.00   0.00  0.01  0.00  0.96  0.00  0.03  0.00  0.00  0.00
  HS02004792HS02004799    1.00   0.00  0.00  0.00  1.00  0.00  0.00  0.00  0.98  0.00
  HS02004788HS02004792    1.00   0.00  0.00  0.00  1.00  0.00  0.00  0.00  0.98  0.00
  HS02004785HS02004788    1.00   0.00  0.00  0.00  1.00  0.00  0.00  0.00  0.00  0.00
  HS02004777HS02004785    1.00   0.00  0.00  0.00  1.00  0.00  0.00  0.00  0.11  0.00
  HS02004480HS02004478    1.00   0.03  0.00  0.00  0.72  0.00  0.00  0.25  0.00  0.00
  HS02004479HS02004480    1.00   0.01  0.00  0.00  0.99  0.00  0.00  0.00  0.11  0.00
  HS02004862HS02004870    1.00   0.00  0.00  0.00  1.00  0.00  0.00  0.00  0.02  0.00
  HS02004848HS02004852    1.00   0.03  0.00  0.00  0.97  0.00  0.00  0.00  0.79  0.00
  HS02004856HS02004862    1.00   0.00  0.04  0.00  0.96  0.00  0.00  0.00  0.84  0.00
  HS02004852HS02004856    1.00   0.03  0.00  0.00  0.97  0.00  0.00  0.00  0.77  0.00
  HS02004802HS02004478    1.00   0.03  0.00  0.00  0.97  0.00  0.00  0.00  0.02  0.00
  HS02004478WS02006287    1.00   0.04  0.00  0.00  0.78  0.18  0.00  0.00  0.62  0.00
  HS02004817HS02004807    1.00   0.00  0.03  0.00  0.97  0.00  0.00  0.00  0.01  0.00
  HS02004807HS02004802    1.00   0.03  0.00  0.00  0.96  0.00  0.00  0.00  0.00  0.00
  YS02001759YS02001757    1.00   0.00  0.00  0.00  1.00  0.00  0.00  0.00  0.15  0.00
  YS02001762YS02001759    1.00   0.00  0.00  0.00  1.00  0.00  0.00  0.00  0.02  0.00
  YS02001765YS02001762    1.00   0.00  0.00  0.00  1.00  0.00  0.00  0.00  0.13  0.00
  YS02001770YS02001767    1.00   0.00  0.00  0.00  1.00  0.00  0.00  0.00  0.00  0.00
  YS02001774YS02001770    1.00   0.00  0.03  0.00  0.97  0.00  0.00  0.00  0.02  0.00
  YS02001779YS02001774    1.00   0.00  0.00  0.00  1.00  0.00  0.00  0.00  0.16  0.00
  YS02001649YS02001757    1.00   0.00  0.00  0.00  1.00  0.00  0.00  0.00  0.15  0.00
  YS02001767YS02001765    1.00   0.00  0.00  0.00  1.00  0.00  0.00  0.00  0.00  0.00
  YS02006561YS02001783    1.00   0.04  0.00  0.00  0.34  0.62  0.00  0.00  0.43  0.00
  YS02001783YS02001784    1.00   0.00  0.04  0.00  0.96  0.00  0.00  0.00  0.00  0.00
  YS02001784YS02001785    1.00   0.00  0.00  0.00  1.00  0.00  0.00  0.00  0.16  0.00
  YS02001788YS02001790    1.00   0.00  0.00  0.00  0.37  0.63  0.00  0.00  0.38  0.00
  YS02001790YS02001791    1.00   0.00  0.00  0.00  0.34  0.66  0.00  0.00  0.45  0.00
  YS02001791YS02001793    1.00   0.00  0.00  0.00  0.37  0.63  0.00  0.00  0.03  0.00
  YS02001910YS02001907    1.00   0.00  0.00  0.00  0.99  0.00  0.00  0.01  0.12  0.00
  YS02001786YS02001788    1.00   0.00  0.00  0.00  0.36  0.64  0.00  0.00  0.00  0.00
  YS02001915YS02001910    1.00   0.00  0.00  0.00  0.99  0.01  0.00  0.00  0.13  0.00
  YS02001918YS02001915    1.00   0.00  0.00  0.00  1.00  0.00  0.00  0.00  0.51  0.00
  YS02001923YS02001920    1.00   0.00  0.00  0.00  1.00  0.00  0.00  0.00  0.75  0.00
  YS02001926YS02001923    1.00   0.00  0.02  0.00  0.21  0.00  0.77  0.00  0.00  0.00
  YS02001929YS02001926    1.00   0.00  0.03  0.00  0.97  0.00  0.00  0.00  0.66  0.00
  YS02001920YS02001918    1.00   0.00  0.00  0.00  1.00  0.00  0.00  0.00  0.00  0.00
  YS02001629YS02163301    1.00   0.04  0.00  0.00  0.96  0.00  0.00  0.00  0.00  0.00
  YS02001619YS02001622    1.00   0.03  0.00  0.00  0.97  0.00  0.00  0.00  0.00  0.00
  YS02001622YS02001625    1.00   0.03  0.00  0.00  0.97  0.00  0.00  0.00  0.03  0.00
  YS02001625YS02001629    1.00   0.03  0.01  0.00  0.95  0.00  0.01  0.00  0.00  0.00
  YS02163301YS02001633    1.00   0.00  0.04  0.00  0.96  0.00  0.00  0.00  0.00  0.00
  YS02163601YS02164001    1.00   0.00  0.02  0.00  0.98  0.00  0.00  0.00  0.00  0.00
  YS02164001YS02001641    1.00   0.00  0.02  0.00  0.98  0.00  0.00  0.00  0.05  0.00
  YS02001641YS02001644    1.00   0.00  0.00  0.00  1.00  0.00  0.00  0.00  0.00  0.00
  YS02001647YS02001649    1.00   0.00  0.04  0.00  0.96  0.00  0.00  0.00  0.01  0.00
  YS02006553YS02006556    1.00   0.00  0.00  0.00  1.00  0.00  0.00  0.00  0.03  0.00
  YS02006556YS02006558    1.00   0.00  0.00  0.00  1.00  0.00  0.00  0.00  0.00  0.00
  YSB6556YSB1171          1.00   0.01  0.02  0.00  0.97  0.00  0.00  0.00  0.00  0.00
  YS02001907YS02006553    1.00   0.00  0.00  0.00  0.99  0.00  0.00  0.00  0.00  0.00
  YS02006558YS02006561    1.00   0.04  0.00  0.00  0.21  0.75  0.00  0.00  0.45  0.00
  YS02001633YS02163601    1.00   0.00  0.00  0.00  1.00  0.00  0.00  0.00  0.14  0.00
  YS02001644YS02001647    1.00   0.00  0.04  0.00  0.96  0.00  0.00  0.00  0.00  0.00
  YS02001745YS02001748    1.00   0.00  0.00  0.00  0.93  0.00  0.00  0.06  0.01  0.00
  YS02001748YS02001751    1.00   0.00  0.00  0.00  0.98  0.02  0.00  0.00  0.14  0.00
  YS02001751YS02001754    1.00   0.00  0.00  0.00  0.95  0.00  0.00  0.05  0.01  0.00
  YS02001754YS02001757    1.00   0.00  0.00  0.00  1.00  0.00  0.00  0.00  0.16  0.00
  YS02001882YS02001884    1.00   0.04  0.00  0.00  0.96  0.00  0.00  0.00  0.00  0.00
  YS02001884YS02001887    1.00   0.02  0.01  0.00  0.97  0.00  0.00  0.00  0.00  0.00
  YS02001890YS02001895    1.00   0.00  0.04  0.00  0.96  0.00  0.00  0.00  0.00  0.00
  YS02001895YS02001898    1.00   0.04  0.00  0.00  0.96  0.00  0.01  0.00  0.00  0.00
  YS02001898YS02001901    1.00   0.04  0.00  0.00  0.96  0.00  0.00  0.00  0.01  0.00
  YS02001901YS02001904    1.00   0.04  0.00  0.00  0.96  0.00  0.00  0.00  0.00  0.00
  YS02001904YS02001907    1.00   0.00  0.04  0.00  0.96  0.00  0.00  0.00  0.00  0.00
  YS02001887YS02001890    1.00   0.00  0.00  0.00  0.99  0.00  0.01  0.00  0.00  0.00
  YS02001652YS02001649    1.00   0.00  0.00  0.00  1.00  0.00  0.00  0.00  0.15  0.00
  YS02001655YS02001652    1.00   0.00  0.00  0.00  0.95  0.00  0.00  0.04  0.01  0.00
  YS02001658YS02001655    1.00   0.00  0.03  0.00  0.95  0.02  0.00  0.00  0.02  0.00
  YS02001661YS02001658    1.00   0.03  0.00  0.00  0.93  0.03  0.00  0.00  0.01  0.00
  YS02001664YS02001661    1.00   0.03  0.00  0.00  0.94  0.03  0.00  0.00  0.09  0.00
  YSB1154YSB6556          1.00   0.03  0.00  0.00  0.97  0.00  0.00  0.00  0.01  0.00
  YSB1174YSB1171          1.00   0.01  0.01  0.00  0.97  0.00  0.00  0.00  0.00  0.00
  YSB1171HS02004479       1.00   0.01  0.00  0.00  0.99  0.00  0.00  0.00  0.10  0.00
  HS02004881HS02006253    1.00   0.01  0.00  0.00  0.88  0.01  0.00  0.10  0.74  0.00
  YS02001793JiankangQianchi    1.00   0.00  0.00  0.00  0.70  0.30  0.00  0.00  0.38  0.00
  YS02001757CaochengTiaoxuchi    1.00   0.00  0.05  0.00  0.92  0.03  0.00  0.00  0.00  0.00
  WSF200WS02003060        1.00   0.00  0.00  0.00  0.98  0.02  0.00  0.00  0.29  0.00
  1                       1.00   0.00  0.00  0.00  0.00  1.00  0.00  0.00  0.59  0.00
  
  
  *************************
  Conduit Surcharge Summary
  *************************
  
  ----------------------------------------------------------------------------
                                                           Hours        Hours 
                         --------- Hours Full --------   Above Full   Capacity
  Conduit                Both Ends  Upstream  Dnstream   Normal Flow   Limited
  ----------------------------------------------------------------------------
  WS02006229WS02006228        4.61      4.69      4.61      5.27         4.61
  WS02006256WS02006235        6.64      6.64      7.21      4.63         0.01
  WS02006253WS02006251        2.91      2.91      2.98      0.01         0.01
  WS02006252WS02006251        2.27      2.27      3.33      2.32         0.01
  WS02006251WS02006249        2.92      2.93      3.02      1.63         1.46
  WS02006249WS02006248        2.94      2.95      3.02      5.30         0.01
  WS02006248WS02006247        3.01      3.01      3.29      0.01         0.01
  WS02006247WS02006245        3.27      3.37      3.27      5.57         3.03
  WS02006245WS02006243        3.35      3.35      3.62      0.31         0.42
  WS02006243WS02006242        3.74      3.74      4.28      0.01         0.01
  WS02006242WS02006240        4.15      4.15      4.40      2.64         0.01
  WS02006240WS02006239        4.16      4.18      4.26      1.29         0.85
  WS02006239WS02006238        4.40      4.42      4.46      1.35         1.03
  WS02006238WS02006235        4.43      4.43      4.55      0.01         0.03
  WS02006235WS02006234        4.22      4.22      4.39      6.37         0.01
  WS02006234WS02006232        4.32      4.32      4.61      1.12         1.10
  WS02006232WS02006231        3.10      3.10      4.61      1.37         0.01
[...]
  YS02001779YS02001774        6.30      6.30      6.35      0.01         0.01
  YS02001649YS02001757        6.36      6.36      6.39      0.01         0.01
  YS02001767YS02001765        6.34      6.34      6.35      0.01         0.01
  YS02006561YS02001783        1.69      1.69      1.94      0.01         0.01
  YS02001783YS02001784        1.91      1.94      1.91      2.12         1.89
  YS02001784YS02001785        1.86      1.91      1.86      2.93         1.86
  YS02001788YS02001790        1.81      1.81      2.42      0.01         0.01
  YS02001790YS02001791        2.41      2.42      2.49      1.82         1.80
  YS02001791YS02001793        2.49      2.49      2.81      0.01         0.01
  YS02001910YS02001907        1.93      1.93      2.38      0.01         0.01
  YS02001786YS02001788        1.81      1.86      1.81      2.53         1.81
  YS02001915YS02001910        1.79      1.79      1.93      0.01         0.01
  YS02001918YS02001915        1.65      1.65      1.79      0.01         0.01
  YS02001923YS02001920        1.49      1.49      1.68      0.01         0.01
  YS02001926YS02001923        0.01      0.01      0.01      0.01         0.01
  YS02001929YS02001926        0.01      0.01      0.01      0.01         0.01
  YS02001920YS02001918        1.65      1.65      1.68      0.01         0.01
  YS02001629YS02163301        6.33      6.33      6.33      0.01         0.01
  YS02001619YS02001622        6.26      6.26      6.26      0.01         0.02
  YS02001622YS02001625        6.26      6.26      6.32      0.01         0.01
  YS02001625YS02001629        6.25      6.25      6.32      0.01         0.01
  YS02163301YS02001633        6.33      6.33      6.34      0.01         0.01
  YS02163601YS02164001        6.34      6.34      6.36      0.01         0.01
  YS02164001YS02001641        6.34      6.34      6.35      0.01         0.02
  YS02001641YS02001644        6.35      6.35      6.35      2.38         2.45
  YS02001647YS02001649        6.32      6.32      6.36      0.01         0.01
  YS02006553YS02006556        2.10      2.10      2.46      0.01         0.01
  YS02006556YS02006558        2.21      2.21      2.55      0.01         0.01
  YSB6556YSB1171              0.01      0.01      0.30      0.01         0.01
  YS02001907YS02006553        2.94      2.94      3.12      0.01         0.01
  YS02006558YS02006561        1.78      2.07      1.78      2.78         1.78
  YS02001633YS02163601        6.34      6.34      6.36      0.01         0.01
  YS02001644YS02001647        6.32      6.32      6.35      0.01         0.01
  YS02001745YS02001748        0.01      0.01      6.21      0.01         0.01
  YS02001748YS02001751        6.22      6.22      6.25      0.01         0.01
  YS02001751YS02001754        6.25      6.25      6.30      0.01         0.01
  YS02001754YS02001757        6.32      6.32      6.39      0.01         0.01
  YS02001882YS02001884        1.80      1.80      1.82      0.01         0.01
  YS02001884YS02001887        1.85      1.85      1.87      0.01         0.01
  YS02001890YS02001895        1.78      1.78      1.94      0.01         0.01
  YS02001895YS02001898        1.78      1.78      1.78      0.01         0.01
  YS02001898YS02001901        1.79      1.79      1.85      0.01         0.01
  YS02001901YS02001904        1.83      1.83      1.85      0.01         0.01
  YS02001904YS02001907        1.83      1.83      2.49      0.01         0.01
  YS02001887YS02001890        1.89      1.89      1.91      0.52         0.01
  YS02001652YS02001649        6.32      6.32      6.36      0.01         0.01
  YS02001655YS02001652        6.26      6.26      6.32      0.01         0.01
  YS02001658YS02001655        6.21      6.21      6.26      0.01         0.01
  YS02001661YS02001658        0.12      0.12      6.21      0.01         0.01
  YS02001664YS02001661        0.01      0.01      1.87      0.01         0.01
  HS02004881HS02006253        0.01      0.01      2.18      0.01         0.01
  YS02001793JiankangQianchi        2.73      2.73      4.77      0.01         0.01
  YS02001757CaochengTiaoxuchi        5.91      5.91      6.39      0.01         0.01
  
  
  ***************
  Pumping Summary
  ***************
  
  ---------------------------------------------------------------------------------------------------------
                                                  Min       Avg       Max     Total     Power    % Time Off
                        Percent   Number of      Flow      Flow      Flow    Volume     Usage    Pump Curve
  Pump                 Utilized   Start-Ups       LPS       LPS       LPS  10^6 ltr     Kw-hr    Low   High
  ---------------------------------------------------------------------------------------------------------
  CC-Pump-1               72.91           1      0.00    187.66    200.00     3.900      3.97    0.0    0.0
  CC-Pump-2               43.75           6      0.00    103.14    200.00     1.560      2.12    0.0    0.0
  JK-Pump-1               60.42           4      0.00    246.46    300.00     4.116     57.22    0.0    0.0
  JK-Pump-2               56.24           3      0.00    473.93    683.00     7.745     95.15    0.0   98.0
  XR-Pump-1               99.99           2      0.00     93.84     95.00     2.679     21.85    0.0    0.0
  XR-Pump-2               99.99           2      0.00     93.84     95.00     2.679     21.85    0.0    0.0
  XR-Pump-3               93.74           3      0.00     93.15     95.00     2.451     16.96    0.0    0.0
  XR-Pump-4               93.74           3      0.00     93.15     95.00     2.451     16.96    0.0    0.0
  
  
  ***************************
  Link Pollutant Load Summary
  ***************************
  
  ------------------------------------------------------------------------------------------
                                 COD            SS            TN            TP         NH4-N
  Link                            kg            kg            kg            kg            kg
  ------------------------------------------------------------------------------------------
  WS02003066WSF200          1193.471      2297.798        28.189         2.330        14.469
  WS02006287WS02006284       439.483       856.800        12.716         1.197         6.844
  WS02006284WS02006280       440.001       857.637        12.765         1.203         6.875
  WS02006280WS02006229       440.016       857.714        12.763         1.203         6.873
  WS02006229WS02006228      1192.493      2294.749        27.744         2.263        14.174
  WS02006256WS02006235       219.461       416.662         4.508         0.334         2.231
  WS02006253WS02006251        85.502       171.527         1.852         0.138         0.915
  WS02006252WS02006251       543.758      1036.046        10.486         0.717         5.053
  WS02006251WS02006249       620.985      1192.189        12.190         0.846         5.900
  WS02006249WS02006248       545.641      1044.563        10.743         0.746         5.204
  WS02006248WS02006247       544.201      1041.553        10.719         0.745         5.193
  WS02006247WS02006245       544.155      1041.566        10.715         0.744         5.190
  WS02006245WS02006243       544.353      1042.200        10.713         0.744         5.189
  WS02006243WS02006242       544.871      1043.286        10.722         0.744         5.193
  WS02006242WS02006240       543.803      1041.216        10.699         0.743         5.182
  WS02006240WS02006239       542.865      1039.288        10.681         0.741         5.173
  WS02006239WS02006238       542.236      1037.798        10.676         0.742         5.172
  WS02006238WS02006235       541.163      1035.426        10.658         0.741         5.164
  WS02006235WS02006234       756.522      1444.497        15.072         1.067         7.347
  WS02006234WS02006232       755.908      1443.405        15.060         1.066         7.342
  WS02006232WS02006231       755.085      1441.898        15.044         1.065         7.334
  WS02006231WS02006230       754.361      1440.550        15.033         1.065         7.329
  WS02006230WS02006229       754.975      1441.788        15.057         1.067         7.343
  WS02006228WS02006109      1191.337      2292.711        27.710         2.260        14.156
  WS02006116WS02004401      1209.507      2326.866        28.605         2.365        14.686
  WS02006115WS02006116      1211.113      2329.768        28.653         2.369        14.712
  WS02006113WS02006111      1197.091      2301.668        28.440         2.354        14.619
  WS02006112WS02006115      1212.472      2332.228        28.698         2.374        14.737
  WS02006111WS02006112      1196.170      2299.855        28.415         2.352        14.606
  WS02006110WS02006113      1197.508      2302.290        28.456         2.356        14.629
  WS02006109WS02006110      1198.750      2304.374        28.509         2.361        14.659
  WS02004411WS02004412      1197.687      2305.453        28.324         2.343        14.543
  WS02004401WS02004402      1208.024      2324.195        28.557         2.360        14.660
  WS02004413WS02003067      1194.506      2299.678        28.217         2.333        14.483
  WS02004412WS02004413      1195.940      2302.288        28.270         2.338        14.513
  WS02004410WS02004411      1199.076      2307.958        28.365         2.347        14.566
  WS02004409WS02004410      1200.354      2310.264        28.406         2.351        14.588
  WS02004407WS02004409      1201.531      2312.372        28.440         2.354        14.606
  WS02004406WS02004407      1201.942      2313.067        28.450         2.354        14.611
  WS02004405WS02004406      1203.789      2316.328        28.522         2.362        14.652
  WS02004404WS02004405      1205.568      2319.577        28.553         2.363        14.666
  WS02004403WS02004404      1205.284      2319.285        28.470         2.352        14.612
  WS02004402WS02004403      1206.532      2321.529        28.511         2.356        14.635
  WS02004139WS02001211      1387.997      2351.968       104.148        12.564        63.771
  WS02004138WS02004139      1394.136      2362.300       104.610        12.620        64.054
  WS02003067WS02003066      1193.659      2298.145        28.195         2.331        14.472
  WS02001213WS02003059      1423.085      2407.013       107.791        13.024        66.060
  WS02001212WS02001213      1432.290      2422.344       108.527        13.113        66.513
  WS02001211WS02001212      1433.751      2424.750       108.648        13.128        66.588
  WS02003072WS02003073      2719.664      4868.255       146.308        16.652        87.002
  WS02003069WS02003072      2724.142      4875.771       146.646        16.693        87.210
  WS02003060WS02003069      2726.981      4880.758       146.794        16.709        87.297
  WS02003059WS02003060      1420.458      2402.493       107.619        13.003        65.956
  HS02004901HS02004770        19.398        38.441         0.369         0.028         0.174
  HS02004876HS02004881        64.873       131.206         1.384         0.100         0.676
  HS02004870HS02004876        49.332        99.669         1.097         0.080         0.538
  HS02004842HS02004848         9.280        18.140         0.191         0.013         0.089
  HS02004837HS02004842        13.929        25.531         0.662         0.072         0.384
  HS02004830HS02004837        82.265       147.263         4.950         0.580         2.988
  HS02004824HS02004830        83.080       148.604         5.025         0.589         3.035
  HS02004817HS02004824       119.545       223.377         5.760         0.636         3.392
  HS02004770HS02004777        73.686       147.829         1.507         0.104         0.700
  HS02004799HS02004480       235.409       461.168         5.709         0.488         2.901
  HS02004792HS02004799       214.468       417.859         5.361         0.468         2.741
  HS02004788HS02004792       116.598       227.798         3.360         0.307         1.772
  HS02004785HS02004788        75.131       150.141         1.656         0.123         0.795
  HS02004777HS02004785        74.438       149.029         1.593         0.115         0.755
  HS02004480HS02004478       294.758       580.474         6.734         0.563         3.389
  HS02004479HS02004480        62.987       125.178         1.335         0.113         0.681
  HS02004862HS02004870        37.563        74.901         0.865         0.066         0.427
  HS02004848HS02004852        15.822        31.382         0.320         0.022         0.149
  HS02004856HS02004862        25.853        52.201         0.514         0.035         0.243
  HS02004852HS02004856        15.837        31.407         0.320         0.022         0.149
  HS02004802HS02004478       145.647       277.798         6.047         0.642         3.495
  HS02004478WS02006287       439.627       857.002        12.733         1.199         6.854
  HS02004817HS02004807       118.263       221.356         5.627         0.619         3.308
  HS02004807HS02004802       145.814       278.052         6.080         0.646         3.515
  YS02001759YS02001757       468.537       885.277         9.168         0.641         4.469
  YS02001762YS02001759       216.610       406.743         4.469         0.315         2.201
  YS02001765YS02001762       217.834       410.141         4.508         0.318         2.222
  YS02001770YS02001767       221.268       419.832         4.413         0.300         2.148
  YS02001774YS02001770       422.355       830.458         8.137         0.545         3.936
  YS02001779YS02001774       421.329       828.485         8.195         0.555         3.979
  YS02001649YS02001757       391.019       728.762         7.714         0.536         3.705
  YS02001767YS02001765       219.796       414.985         4.557         0.322         2.248
  YS02006561YS02001783      1265.901      2389.038        26.163         1.934        12.956
  YS02001783YS02001784      1265.813      2388.906        26.159         1.934        12.954
  YS02001784YS02001785      1273.314      2400.926        26.887         2.025        13.409
  YS02001788YS02001790      1273.942      2401.944        26.961         2.035        13.456
  YS02001790YS02001791      1274.997      2403.643        27.063         2.048        13.520
  YS02001791YS02001793      1274.990      2403.636        27.061         2.047        13.518
  YS02001910YS02001907       567.832      1071.654        12.846         0.950         6.489
  YS02001786YS02001788      1273.507      2401.236        26.916         2.029        13.427
  YS02001915YS02001910       567.522      1071.052        12.798         0.943         6.457
  YS02001918YS02001915       280.694       508.814         6.968         0.600         3.664
  YS02001923YS02001920       255.083       465.089         4.904         0.350         2.390
  YS02001926YS02001923       251.935       459.431         4.779         0.337         2.318
  YS02001929YS02001926       249.218       454.662         4.664         0.325         2.252
  YS02001920YS02001918       276.535       500.091         6.877         0.595         3.619
  YS02001629YS02163301        89.993       159.732         1.903         0.125         0.892
  YS02001619YS02001622       259.802       485.874         5.254         0.349         2.466
  YS02001622YS02001625       258.860       484.403         5.230         0.347         2.455
  YS02001625YS02001629        87.083       153.964         1.858         0.121         0.869
  YS02163301YS02001633        94.827       169.210         1.980         0.131         0.931
  YS02163601YS02164001       530.658       979.089        10.204         0.737         4.905
  YS02164001YS02001641       530.563       978.922        10.191         0.736         4.897
  YS02001641YS02001644       531.605       980.668        10.204         0.737         4.903
  YS02001647YS02001649       540.163      1014.263        10.623         0.745         5.066
  YS02006553YS02006556       784.486      1461.402        16.712         1.267         8.376
  YS02006556YS02006558       784.587      1461.586        16.676         1.262         8.351
  YSB6556YSB1171              36.523        72.736         0.718         0.059         0.359
  YS02001907YS02006553       784.477      1461.400        16.740         1.271         8.395
  YS02006558YS02006561      1265.864      2388.957        26.162         1.934        12.955
  YS02001633YS02163601       531.233       979.996        10.179         0.733         4.886
  YS02001644YS02001647       549.060      1030.886        10.774         0.756         5.138
  YS02001745YS02001748       354.723       680.983         7.005         0.438         3.365
  YS02001748YS02001751       354.062       679.864         7.013         0.441         3.374
  YS02001751YS02001754       353.177       678.417         7.000         0.441         3.369
  YS02001754YS02001757       354.067       679.766         7.171         0.464         3.480
  YS02001882YS02001884         5.430         9.705         0.103         0.008         0.050
  YS02001884YS02001887         7.655        13.826         0.145         0.011         0.071
  YS02001890YS02001895       615.046      1175.758        11.372         0.859         5.549
  YS02001895YS02001898       614.903      1175.592        11.365         0.859         5.546
  YS02001898YS02001901       615.036      1175.711        11.371         0.859         5.549
  YS02001901YS02001904       614.373      1174.767        11.364         0.859         5.547
  YS02001904YS02001907       615.240      1176.089        11.440         0.869         5.594
  YS02001887YS02001890       669.503      1284.665        12.366         0.937         6.038
  YS02001652YS02001649       306.687       583.237         6.080         0.440         2.858
  YS02001655YS02001652       307.208       584.094         6.094         0.441         2.865
  YS02001658YS02001655       306.713       583.325         6.007         0.430         2.808
  YS02001661YS02001658       307.310       584.325         6.021         0.431         2.815
  YS02001664YS02001661       323.756       611.000         6.405         0.457         2.991
  YSB1154YSB6556              36.102        72.069         0.672         0.053         0.330
  YSB1174YSB1171              24.944        50.009         0.488         0.039         0.242
  YSB1171HS02004479           62.907       125.028         1.341         0.114         0.684
  HS02004881HS02006253        73.429       149.077         1.534         0.110         0.747
  YS02001793JiankangQianchi      1274.935      2403.594        27.035         2.044        13.502
  YS02001757CaochengTiaoxuchi       811.562      1524.205        16.032         1.097         7.750
  WSF200WS02003060          1193.153      2297.238        28.186         2.330        14.468
  1                         2723.441      4873.500       146.918        16.732        87.394
  CC-Pump-1                  386.495       736.018         7.460         0.510         3.595
  CC-Pump-2                  157.061       299.588         3.021         0.206         1.455
  JK-Pump-1                  325.505       623.672         6.555         0.481         3.230
  JK-Pump-2                  740.970      1419.735        14.916         1.095         7.349
  XR-Pump-1                  373.791       631.061        28.553         3.454        17.512
  XR-Pump-2                  373.791       631.061        28.553         3.454        17.512
  XR-Pump-3                  325.225       553.321        23.911         2.875        14.613
  XR-Pump-4                  325.225       553.321        23.911         2.875        14.613
  

  Analysis begun on:  Sat Jul 10 16:31:08 2021
  Analysis ended on:  Sat Jul 10 16:31:11 2021
  Total elapsed time: 00:00:03