
  EPA STORM WATER MANAGEMENT MODEL - VERSION 5.1 (Build 5.3.0.dev0)
  --------------------------------------------------------------

  WARNING 04: minimum elevation drop used for Conduit WS02004404WS02004405
  WARNING 03: negative offset ignored for Link YS02001904YS02001907
  
  *********************************************************
  NOTE: The summary statistics displayed in this report are
  based on results found at every computational time step,  
  not just on results from each reporting time step.
  *********************************************************
  
  ****************
  Analysis Options
  ****************
  Flow Units ............... LPS
  Process Models:
    Rainfall/Runoff ........ YES
    RDII ................... NO
    Snowmelt ............... NO
    Groundwater ............ NO
    Flow Routing ........... YES
    Ponding Allowed ........ NO
    Water Quality .......... YES
  Infiltration Method ...... HORTON
  Flow Routing Method ...... DYNWAVE
  Surcharge Method ......... EXTRAN
  Starting Date ............ 08/28/2015 08:00:00
  Ending Date .............. 08/28/2015 16:00:00
  Antecedent Dry Days ...... 8.0
  Report Time Step ......... 00:01:00
  Wet Time Step ............ 00:01:00
  Dry Time Step ............ 00:01:00
  Routing Time Step ........ 5.00 sec
  Variable Time Step ....... YES
  Maximum Trials ........... 8
  Number of Threads ........ 4
  Head Tolerance ........... 0.001500 m
  
  
  **************************        Volume         Depth
  Runoff Quantity Continuity     hectare-m            mm
  **************************     ---------       -------
  Total Precipitation ......         3.863         8.458
  Evaporation Loss .........         0.000         0.000
  Infiltration Loss ........         0.771         1.689
  Surface Runoff ...........         2.441         5.344
  Final Storage ............         0.651         1.426
  Continuity Error (%) .....        -0.018
  
  
  **************************           COD            SS            TN            TP         NH4-N
  Runoff Quality Continuity             kg            kg            kg            kg            kg
  **************************    ----------    ----------    ----------    ----------    ----------
  Initial Buildup ..........     41378.656     70582.865      1804.177       168.684      1032.807
  Surface Buildup ..........        15.529        24.593         2.286         0.210         1.343
  Wet Deposition ...........         0.000         0.000         0.000         0.000         0.000
  Sweeping Removal .........         0.000         0.000         0.000         0.000         0.000
  Infiltration Loss ........        49.583        89.558         0.959         0.065         0.453
  BMP Removal ..............         0.000         0.000         0.000         0.000         0.000
  Surface Runoff ...........      1688.608      2970.829        33.516         2.211        15.840
  Remaining Buildup ........     39655.499     67546.198      1771.978       166.617      1017.853
  Continuity Error (%) .....         0.001         0.001         0.001         0.000         0.000
  
  
  **************************        Volume        Volume
  Flow Routing Continuity        hectare-m      10^6 ltr
  **************************     ---------     ---------
  Dry Weather Inflow .......         0.630         6.296
  Wet Weather Inflow .......         2.440        24.399
  Groundwater Inflow .......         0.000         0.000
  RDII Inflow ..............         0.000         0.000
  External Inflow ..........         0.105         1.045
  External Outflow .........         1.996        19.960
  Flooding Loss ............         0.888         8.884
  Evaporation Loss .........         0.000         0.000
  Exfiltration Loss ........         0.000         0.000
  Initial Stored Volume ....         0.076         0.761
  Final Stored Volume ......         0.497         4.968
  Continuity Error (%) .....        -4.033
  
  
  **************************           COD            SS            TN            TP         NH4-N
  Quality Routing Continuity            kg            kg            kg            kg            kg
  **************************    ----------    ----------    ----------    ----------    ----------
  Dry Weather Inflow .......      1573.993      2518.389       151.103        18.888        94.440
  Wet Weather Inflow .......      1688.048      2969.893        33.504         2.210        15.834
  Groundwater Inflow .......         0.000         0.000         0.000         0.000         0.000
  RDII Inflow ..............         0.000         0.000         0.000         0.000         0.000
  External Inflow ..........       187.321       299.713        17.983         2.248        11.239
  External Outflow .........      2347.309      3889.600       171.722        20.634       105.118
  Flooding Loss ............       597.104      1052.110        12.757         0.943         6.310
  Exfiltration Loss ........         0.000         0.000         0.000         0.000         0.000
  Mass Reacted .............         0.000         0.000         0.000         0.000         0.000
  Initial Stored Mass ......         0.000         0.000         0.000         0.000         0.000
  Final Stored Mass ........       277.087       462.808         7.917         0.678         4.181
  Continuity Error (%) .....         6.606         6.625         5.032         4.675         4.858
  
  
  *************************
  Highest Continuity Errors
  *************************
  Node HS02004842 (18.71%)
  Node JK-storage (-15.84%)
  Node YS02001884 (12.01%)
  Node YS02001774 (5.85%)
  Node YSB1171 (3.97%)
  
  
  ***************************
  Time-Step Critical Elements
  ***************************
  Link WS02006252WS02006251 (68.19%)
  Link YS02006556YS02006558 (9.31%)
  Link WS02006280WS02006229 (5.21%)
  Link WS02006238WS02006235 (5.11%)
  Link WS02004404WS02004405 (4.52%)
  
  
  ********************************
  Highest Flow Instability Indexes
  ********************************
  Link WS02006113WS02006111 (47)
  Link YS02001629YS02163301 (34)
  Link YS02001619YS02001622 (33)
  Link YS02163301YS02001633 (33)
  Link YS02163601YS02164001 (33)
  
  
  *************************
  Routing Time Step Summary
  *************************
  Minimum Time Step           :     0.29 sec
  Average Time Step           :     1.06 sec
  Maximum Time Step           :     5.00 sec
  Percent in Steady State     :    -0.00
  Average Iterations per Step :     4.23
  Percent Not Converging      :    20.06
  
  
  ***************************
  Subcatchment Runoff Summary
  ***************************
  
  ------------------------------------------------------------------------------------------------------------------------------
                            Total      Total      Total      Total     Imperv       Perv      Total       Total     Peak  Runoff
                           Precip      Runon       Evap      Infil     Runoff     Runoff     Runoff      Runoff   Runoff   Coeff
  Subcatchment                 mm         mm         mm         mm         mm         mm         mm    10^6 ltr      LPS
  ------------------------------------------------------------------------------------------------------------------------------
  sub0                       8.46       0.00       0.00       0.59       7.82       0.00       7.82        0.01     1.16   0.925
  sub1                       8.46       0.00       0.00       0.93       7.44       0.00       7.44        0.05     7.70   0.880
  sub2                       8.46       0.00       0.00       3.13       5.25       0.00       5.25        0.05     7.52   0.621
  sub3                       8.46       0.00       0.00       3.13       5.22       0.00       5.22        0.12    17.42   0.617
  sub4                       8.46       0.00       0.00       0.93       7.30       0.00       7.30        0.15    21.43   0.863
  sub5                       8.46       0.00       0.00       0.59       7.78       0.00       7.78        0.09    13.72   0.919
  sub7                       8.46       0.00       0.00       0.76       7.64       0.00       7.64        0.03     4.36   0.903
  sub8                       8.46       0.00       0.00       0.76       7.63       0.00       7.63        0.05     7.94   0.902
  sub9                       8.46       0.00       0.00       0.76       7.63       0.00       7.63        0.04     5.92   0.902
  sub10                      8.46       0.00       0.00       0.68       7.70       0.00       7.70        0.08    13.25   0.910
  sub11                      8.46       0.00       0.00       0.68       7.71       0.00       7.72        0.09    14.79   0.912
  sub12                      8.46       0.00       0.00       1.10       7.31       0.00       7.31        0.06    11.39   0.865
  sub14                      8.46       0.00       0.00       0.76       7.62       0.00       7.62        0.07    11.62   0.901
  sub15                      8.46       0.00       0.00       2.54       5.86       0.00       5.86        0.10    15.92   0.693
  sub16                      8.46       0.00       0.00       2.79       5.63       0.00       5.63        0.06    10.32   0.666
  sub17                      8.46       0.00       0.00       2.71       5.71       0.00       5.71        0.05     8.48   0.675
  sub22                      8.46       0.00       0.00       3.64       4.78       0.00       4.78        0.30    50.23   0.565
  sub23                      8.46       0.00       0.00       3.13       5.29       0.00       5.29        0.25    42.38   0.625
  sub60                      8.46       0.00       0.00       1.01       5.90       0.00       5.90        1.79   164.80   0.698
  sub61                      8.46       0.00       0.00       1.44       6.06       0.00       6.06        1.87   190.11   0.716
  sub62                      8.46       0.00       0.00       0.68       6.57       0.00       6.57        2.02   200.02   0.777
  sub63                      8.46       0.00       0.00       2.45       5.32       0.00       5.32        1.61   170.11   0.629
  sub64                      8.46       0.00       0.00       1.27       5.66       0.00       5.66        1.72   157.25   0.669
  sub65                      8.46       0.00       0.00       1.10       5.75       0.00       5.75        1.77   160.29   0.680
  sub66                      8.46       0.00       0.00       2.45       4.87       0.00       4.87        1.49   141.15   0.576
  sub67                      8.46       0.00       0.00       0.68       6.98       0.00       6.98        2.15   235.00   0.825
  sub68                      8.46       0.00       0.00       1.18       6.38       0.00       6.38        1.96   204.33   0.755
  sub69                      8.46       0.00       0.00       1.27       6.66       0.00       6.66        1.56   184.58   0.788
  sub70                      8.46       6.80       0.00       5.12       8.77       0.07       8.84        2.02   196.15   0.579
  sub71                      8.46       0.00       0.00       0.68       6.38       0.00       6.38        1.51   143.90   0.754
  sub72                      8.46       0.00       0.00       0.59       4.96       0.00       4.96        1.01    76.81   0.587
  1                          8.46       8.61       0.00       1.40       9.50       2.14      11.63        2.73   208.46   0.682
  2                          8.46       0.00       0.00       3.09       1.99       0.83       2.82        1.13   115.90   0.333
  
  
  ****************************
  Subcatchment Washoff Summary
  ****************************
  
  ------------------------------------------------------------------------------------------
                                 COD            SS            TN            TP         NH4-N
  Subcatchment                    kg            kg            kg            kg            kg
  ------------------------------------------------------------------------------------------
  sub0                         1.269         2.347         0.021         0.002         0.010
  sub1                         5.368        10.152         0.101         0.007         0.048
  sub2                         3.123         5.706         0.069         0.004         0.031
  sub3                         7.722        13.979         0.167         0.011         0.076
  sub4                        12.454        23.700         0.253         0.015         0.121
  sub5                        12.367        23.084         0.218         0.016         0.105
  sub7                         2.789         5.362         0.053         0.003         0.025
  sub8                         4.236         8.323         0.086         0.005         0.041
  sub9                         3.593         6.962         0.070         0.004         0.034
  sub10                       10.223        19.332         0.187         0.013         0.090
  sub11                       10.038        19.218         0.188         0.013         0.091
  sub12                        8.270        15.515         0.149         0.011         0.071
  sub14                        7.633        14.652         0.146         0.009         0.070
  sub15                        8.991        16.442         0.177         0.013         0.082
  sub16                        5.608        10.223         0.108         0.008         0.050
  sub17                        5.144         9.292         0.096         0.007         0.045
  sub22                       26.265        46.903         0.511         0.038         0.236
  sub23                       16.126        29.920         0.358         0.023         0.162
  sub60                      111.189       195.701         2.296         0.135         1.097
  sub61                      137.158       240.188         2.611         0.173         1.253
  sub62                      144.905       258.543         2.914         0.178         1.395
  sub63                      101.253       174.676         2.116         0.145         0.971
  sub64                      135.285       229.312         2.541         0.180         1.207
  sub65                      138.838       236.388         2.628         0.183         1.251
  sub66                       79.547       136.083         1.713         0.108         0.794
  sub67                      213.239       376.927         3.844         0.276         1.852
  sub68                      152.320       269.719         2.990         0.195         1.422
  sub69                      137.629       246.574         2.627         0.179         1.250
  sub70                      220.736       396.570         4.531         0.305         2.102
  sub71                       96.350       173.424         2.061         0.115         0.983
  sub72                       70.842       118.244         1.360         0.090         0.652
  1                          137.857       249.361         2.909         0.197         1.332
  2                           18.605        31.151         0.577         0.034         0.242
  ------------------------------------------------------------------------------------------
  System                    2046.973      3613.974        40.674         2.696        19.192
  
  
  ******************
  Node Depth Summary
  ******************
  
  ---------------------------------------------------------------------------------
                                 Average  Maximum  Maximum  Time of Max    Reported
                                   Depth    Depth      HGL   Occurrence   Max Depth
  Node                 Type       Meters   Meters   Meters  days hr:min      Meters
  ---------------------------------------------------------------------------------
  WS02001211           JUNCTION     0.77     0.79     5.63     0  06:34        0.79
  WS02001212           JUNCTION     0.48     0.51     5.57     0  06:33        0.51
  WS02001213           JUNCTION     0.72     0.76     5.52     0  06:32        0.76
  WS02003069           JUNCTION     0.51     0.59     5.17     0  06:32        0.59
  WS02003072           JUNCTION     0.57     0.64     5.01     0  06:32        0.64
  WS02003073           JUNCTION     0.35     0.40     4.46     0  06:33        0.40
  WS02003060           JUNCTION     0.45     0.52     5.45     0  06:31        0.52
  WS02003066           JUNCTION     0.24     0.30     5.85     0  04:47        0.30
  WS02003059           JUNCTION     0.76     0.81     5.50     0  06:32        0.81
  WS02003067           JUNCTION     0.59     0.70     6.02     0  04:47        0.70
  WS02004401           JUNCTION     0.70     0.86     6.86     0  04:45        0.86
  WS02004402           JUNCTION     0.73     0.88     6.84     0  04:45        0.88
  WS02004403           JUNCTION     0.75     0.90     6.83     0  04:45        0.90
  WS02004404           JUNCTION     0.83     0.97     6.82     0  04:45        0.97
  WS02004406           JUNCTION     0.83     0.96     6.79     0  04:46        0.96
  WS02004409           JUNCTION     0.52     0.67     6.44     0  04:46        0.67
  WS02004410           JUNCTION     0.54     0.69     6.41     0  04:46        0.69
  WS02004411           JUNCTION     0.55     0.70     6.38     0  04:47        0.70
  WS02004412           JUNCTION     0.57     0.70     6.34     0  04:47        0.70
  WS02004413           JUNCTION     0.72     0.86     6.33     0  04:47        0.86
  WS02004405           JUNCTION     0.82     0.96     6.81     0  04:46        0.96
  WS02006109           JUNCTION     0.79     0.99     7.61     0  04:42        0.99
  WS02006110           JUNCTION     0.78     0.93     7.52     0  04:41        0.93
  WS02006111           JUNCTION     0.23     0.29     7.00     0  04:43        0.29
  WS02006112           JUNCTION     0.88     1.07     6.95     0  06:34        1.06
  WS02006113           JUNCTION     0.36     0.46     7.35     0  04:42        0.46
  WS02006115           JUNCTION     0.60     0.76     6.90     0  04:44        0.76
  WS02006116           JUNCTION     0.68     0.84     6.88     0  04:45        0.84
  WS02006230           JUNCTION     0.78     1.12     7.86     0  04:38        1.12
  WS02006231           JUNCTION     0.53     0.87     7.99     0  04:38        0.87
  WS02006232           JUNCTION     0.67     1.07     8.11     0  04:40        1.07
  WS02006234           JUNCTION     0.60     1.08     8.23     0  06:09        1.07
  WS02006235           JUNCTION     0.64     1.17     8.33     0  06:09        1.16
  WS02006238           JUNCTION     0.67     1.19     8.34     0  06:09        1.19
  WS02006240           JUNCTION     0.57     1.14     8.43     0  06:08        1.13
  WS02006242           JUNCTION     0.63     1.22     8.49     0  06:08        1.21
  WS02006243           JUNCTION     0.51     1.13     8.55     0  06:11        1.12
  WS02006245           JUNCTION     0.49     1.11     8.60     0  04:42        1.11
  WS02006247           JUNCTION     0.50     1.14     8.64     0  04:41        1.13
  WS02006248           JUNCTION     0.44     1.08     8.67     0  06:09        1.07
  WS02006249           JUNCTION     0.47     1.09     8.69     0  04:37        1.09
  WS02006239           JUNCTION     0.63     1.18     8.39     0  06:09        1.17
  WS02006251           JUNCTION     0.45     1.21     8.88     0  06:08        1.16
  WS02006252           JUNCTION     0.32     0.75     8.99     0  06:08        0.70
  WS02006253           JUNCTION     0.48     1.25     8.89     0  06:08        1.20
  WS02006256           JUNCTION     1.56     2.35     9.28     0  00:00        2.35
  WS02004138           JUNCTION     0.19     0.20     7.45     0  00:00        0.19
  WS02004139           JUNCTION     0.72     0.74     5.65     0  06:34        0.74
  WS02004407           JUNCTION     0.24     0.30     6.61     0  04:46        0.30
  WS02006228           JUNCTION     0.80     1.03     7.69     0  04:41        1.03
  WS02006229           JUNCTION     0.77     1.03     7.72     0  04:38        1.03
  WS02006280           JUNCTION     0.06     0.14     8.42     0  02:09        0.14
  WS02006284           JUNCTION     0.36     0.48     8.88     0  02:09        0.48
  WS02006287           JUNCTION     0.09     0.21     9.17     0  02:08        0.21
  WSF200               JUNCTION     0.23     0.31     5.54     0  04:47        0.31
  HS02004901           JUNCTION     0.12     0.23    10.05     0  01:37        0.23
  HS02004881           JUNCTION     0.01     0.02     9.05     0  02:08        0.02
  HS02004876           JUNCTION     0.04     0.10     9.13     0  02:07        0.10
  HS02004870           JUNCTION     0.01     0.04     9.33     0  02:08        0.04
  HS02004862           JUNCTION     0.02     0.05     9.43     0  02:08        0.05
  HS02004856           JUNCTION     0.08     0.11     9.53     0  02:08        0.11
  HS02004852           JUNCTION     0.01     0.03     9.54     0  02:09        0.03
  HS02004848           JUNCTION     0.01     0.03     9.63     0  02:08        0.03
  HS02004842           JUNCTION     0.33     0.36     9.63     0  02:08        0.36
  HS02004837           JUNCTION     0.03     0.05     9.63     0  02:08        0.05
  HS02004830           JUNCTION     0.04     0.06     9.53     0  02:09        0.06
  HS02004824           JUNCTION     0.02     0.04     9.45     0  02:09        0.04
  HS02004817           JUNCTION     0.43     0.53     9.38     0  02:09        0.53
  HS02004807           JUNCTION     0.12     0.21     9.38     0  02:09        0.21
  HS02004802           JUNCTION     0.16     0.24     9.37     0  02:09        0.24
  HS02004799           JUNCTION     0.11     0.25     9.46     0  01:38        0.25
  HS02004792           JUNCTION     0.03     0.10     9.62     0  01:37        0.10
  HS02004788           JUNCTION     0.02     0.07     9.97     0  01:38        0.07
  HS02004785           JUNCTION     0.04     0.13    10.03     0  01:38        0.13
  HS02004777           JUNCTION     0.14     0.25    10.05     0  01:37        0.25
  HS02004770           JUNCTION     0.11     0.22    10.05     0  01:37        0.22
  HS02004480           JUNCTION     0.07     0.20     9.44     0  01:38        0.20
  HS02004479           JUNCTION     0.11     0.23     9.44     0  01:39        0.23
  HS02004478           JUNCTION     0.05     0.13     9.35     0  02:08        0.13
  YS02001745           JUNCTION     0.67     0.87     8.39     0  03:07        0.87
  YS02001748           JUNCTION     1.08     1.72     8.80     0  02:37        1.31
  YS02001751           JUNCTION     1.27     1.69     8.57     0  02:34        1.53
  YS02001754           JUNCTION     1.53     1.82     8.43     0  03:07        1.81
  YS02001762           JUNCTION     1.73     2.04     8.44     0  03:07        2.02
  YS02001765           JUNCTION     1.68     1.98     8.43     0  03:07        1.97
  YS02001767           JUNCTION     1.64     1.93     8.42     0  03:07        1.93
  YS02001770           JUNCTION     1.64     1.93     8.43     0  02:31        1.91
  YS02001774           JUNCTION     1.71     1.99     8.42     0  02:31        1.97
  YS02001779           JUNCTION     1.45     1.68     8.37     0  02:28        1.68
  YS02001882           JUNCTION     0.37     0.64     7.36     0  02:32        0.64
  YS02001884           JUNCTION     0.47     0.74     7.35     0  02:29        0.74
  YS02001759           JUNCTION     1.76     2.07     8.43     0  03:07        2.06
  YS02001887           JUNCTION     0.55     0.82     7.35     0  02:31        0.81
  YS02001890           JUNCTION     0.58     0.85     7.35     0  02:28        0.84
  YS02001898           JUNCTION     0.35     0.60     7.34     0  02:28        0.60
  YS02001901           JUNCTION     0.47     0.73     7.33     0  02:58        0.72
  YS02001904           JUNCTION     0.44     0.70     7.33     0  02:27        0.70
  YS02001907           JUNCTION     0.78     1.06     7.35     0  02:58        1.06
  YS02001910           JUNCTION     0.57     0.83     7.33     0  02:58        0.82
  YS02001915           JUNCTION     0.36     0.61     7.33     0  02:58        0.61
  YS02001918           JUNCTION     0.13     0.26     7.33     0  02:26        0.26
  YS02001619           JUNCTION     1.23     1.60     8.53     0  02:32        1.47
  YS02001629           JUNCTION     1.59     1.85     8.40     0  02:30        1.83
  YS02001641           JUNCTION     1.69     1.94     8.38     0  05:25        1.93
  YS02001644           JUNCTION     1.70     1.92     8.35     0  02:42        1.92
  YS02001652           JUNCTION     1.54     2.12     8.72     0  02:51        1.91
  YS02001655           JUNCTION     1.30     2.20     9.05     0  02:19        1.71
  YS02001920           JUNCTION     0.23     0.33     7.34     0  02:59        0.33
  YS02001923           JUNCTION     0.09     0.13     7.39     0  03:01        0.13
  YS02001926           JUNCTION     0.19     0.24     7.69     0  03:01        0.24
  YS02001929           JUNCTION     0.09     0.13     7.82     0  03:01        0.13
  YS02001658           JUNCTION     1.02     2.07     9.21     0  02:51        1.53
  YS02001661           JUNCTION     0.78     2.14     9.54     0  02:52        1.57
  YS02001664           JUNCTION     0.31     0.57     8.50     0  04:02        0.56
  YS02001622           JUNCTION     1.25     1.55     8.46     0  02:33        1.49
  YS02001633           JUNCTION     1.68     1.96     8.41     0  02:34        1.92
  YS02001649           JUNCTION     1.74     2.05     8.44     0  02:47        2.05
  YS02001757           JUNCTION     1.86     2.17     8.44     0  03:07        2.17
  YS02001895           JUNCTION     0.34     0.59     7.34     0  02:28        0.59
  YS02001625           JUNCTION     1.54     1.78     8.38     0  02:32        1.78
  YS02163301           JUNCTION     1.62     1.89     8.41     0  02:34        1.86
  YS02163601           JUNCTION     1.73     2.01     8.41     0  02:34        1.97
  YS02164001           JUNCTION     1.67     1.94     8.40     0  02:34        1.91
  YS02001647           JUNCTION     1.52     1.80     8.41     0  03:07        1.79
  YSB1154              JUNCTION     0.25     0.38     9.44     0  01:38        0.38
  YSB6556              JUNCTION     0.14     0.27     9.44     0  01:38        0.27
  YSB1174              JUNCTION     0.20     0.33     9.44     0  01:38        0.33
  YSB1171              JUNCTION     0.40     0.54     9.44     0  01:39        0.54
  YS02006553           JUNCTION     0.78     1.07     7.35     0  02:57        1.05
  YS02006561           JUNCTION     0.19     0.36     7.02     0  02:30        0.36
  YS02006556           JUNCTION     0.75     1.03     7.34     0  02:30        1.01
  YS02006558           JUNCTION     0.80     1.07     7.34     0  02:27        1.06
  YS02001783           JUNCTION     0.36     1.04     7.18     0  03:12        0.90
  YS02001784           JUNCTION     0.39     1.16     7.23     0  03:12        0.92
  YS02001786           JUNCTION     0.34     1.23     7.26     0  03:12        0.86
  YS02001788           JUNCTION     0.28     1.27     7.24     0  03:12        0.84
  YS02001790           JUNCTION     0.37     1.96     7.60     0  03:10        1.10
  YS02001791           JUNCTION     0.32     2.72     8.19     0  04:16        1.20
  YS02001793           JUNCTION     0.44     3.51     8.34     0  04:14        1.79
  WSC                  OUTFALL      0.35     0.40     1.07     0  06:33        0.40
  JK-storage           STORAGE      2.47     5.80     6.60     0  02:11        5.80
  CC-storage           STORAGE      1.12     1.38     8.38     0  03:11        1.38
  XR-storage           STORAGE      3.99     6.71     4.71     0  04:23        6.71
  
  
  *******************
  Node Inflow Summary
  *******************
  
  -------------------------------------------------------------------------------------------------
                                  Maximum  Maximum                  Lateral       Total        Flow
                                  Lateral    Total  Time of Max      Inflow      Inflow     Balance
                                   Inflow   Inflow   Occurrence      Volume      Volume       Error
  Node                 Type           LPS      LPS  days hr:min    10^6 ltr    10^6 ltr     Percent
  -------------------------------------------------------------------------------------------------
  WS02001211           JUNCTION      7.35   389.53     0  07:08       0.212        10.5       0.379
  WS02001212           JUNCTION      0.00   391.60     0  07:08           0        10.5       0.226
  WS02001213           JUNCTION      0.00   393.44     0  07:07           0        10.5       0.263
  WS02003069           JUNCTION      0.32   949.28     0  06:32     0.00922          20       0.156
  WS02003072           JUNCTION      0.00   949.24     0  06:32           0          20       0.191
  WS02003073           JUNCTION      1.82   951.05     0  06:32      0.0524          20       0.216
  WS02003060           JUNCTION     16.53   949.05     0  06:31       0.476          20       0.148
  WS02003066           JUNCTION      0.00   546.01     0  04:47           0        9.16       0.042
  WS02003059           JUNCTION      0.00   396.65     0  04:10           0        10.5       0.369
  WS02003067           JUNCTION      0.00   545.94     0  04:47           0        9.16       0.089
  WS02004401           JUNCTION      0.00   548.47     0  04:44           0        9.37       0.202
  WS02004402           JUNCTION      0.00   548.12     0  04:44           0        9.35       0.193
  WS02004403           JUNCTION      0.00   547.97     0  04:45           0        9.33       0.177
  WS02004404           JUNCTION      0.16   547.96     0  04:45     0.00467        9.32       0.135
  WS02004406           JUNCTION      0.00   548.13     0  04:46           0        9.29       0.330
  WS02004409           JUNCTION      0.00   547.83     0  04:46           0        9.25       0.142
  WS02004410           JUNCTION      0.00   547.12     0  04:46           0        9.24       0.165
  WS02004411           JUNCTION      0.00   546.60     0  04:46           0        9.22       0.172
  WS02004412           JUNCTION      0.00   546.27     0  04:47           0        9.21       0.190
  WS02004413           JUNCTION      0.00   546.03     0  04:47           0        9.19       0.291
  WS02004405           JUNCTION      0.04   548.02     0  04:45      0.0011        9.31       0.206
  WS02006109           JUNCTION      1.23   549.92     0  04:39      0.0354        9.43       0.205
  WS02006110           JUNCTION      0.00   549.67     0  04:39           0        9.41       0.186
  WS02006111           JUNCTION      0.00   575.51     0  04:43           0        9.38       0.035
  WS02006112           JUNCTION      8.48   554.61     0  04:43       0.049        9.43       0.262
  WS02006113           JUNCTION      0.00   549.95     0  04:39           0        9.39       0.086
  WS02006115           JUNCTION      0.00   553.57     0  04:43           0         9.4       0.182
  WS02006116           JUNCTION      0.00   549.21     0  04:44           0        9.38       0.180
  WS02006230           JUNCTION     10.28   532.46     0  06:10       0.296        7.91       0.152
  WS02006231           JUNCTION      0.00   522.24     0  06:12           0        7.62       0.108
  WS02006232           JUNCTION      0.00   521.96     0  06:10           0        7.63       0.198
  WS02006234           JUNCTION      0.00   522.22     0  06:10           0        7.64       0.083
  WS02006235           JUNCTION      0.00   523.27     0  06:11           0        7.69       0.120
  WS02006238           JUNCTION      0.00   398.10     0  05:30           0        4.57       0.128
  WS02006240           JUNCTION      0.00   398.05     0  05:30           0        4.54       0.225
  WS02006242           JUNCTION      0.00   398.04     0  05:30           0        4.54       0.291
  WS02006243           JUNCTION      0.00   398.13     0  05:30           0        4.53       0.043
  WS02006245           JUNCTION      0.00   398.45     0  05:30           0        4.54       0.205
  WS02006247           JUNCTION      0.00   398.19     0  05:30           0        4.55       0.146
  WS02006248           JUNCTION      0.00   398.32     0  05:29           0        4.55       0.105
  WS02006249           JUNCTION      0.00   402.67     0  04:40           0        4.77       0.192
  WS02006239           JUNCTION      0.00   397.97     0  05:30           0        4.55       0.028
  WS02006251           JUNCTION      0.08   402.37     0  06:10     0.00222        4.82       0.175
  WS02006252           JUNCTION      0.00   400.00     0  05:20           0         4.5       0.009
  WS02006253           JUNCTION      1.16    43.76     0  02:08     0.00633        0.32       1.243
  WS02006256           JUNCTION      0.00   983.00     0  00:00           0        7.11      -0.024
  WS02004138           JUNCTION      0.00   380.00     0  00:00           0        10.4       0.061
  WS02004139           JUNCTION      0.32   396.51     0  00:00     0.00924        10.4       0.432
  WS02004407           JUNCTION      0.00   547.93     0  04:46           0        9.26       0.064
  WS02006228           JUNCTION      0.00   548.92     0  04:39           0         9.4       0.153
  WS02006229           JUNCTION      0.00   547.77     0  04:41           0        9.42       0.127
  WS02006280           JUNCTION      0.00   211.61     0  02:09           0        1.52       0.004
  WS02006284           JUNCTION      0.10   211.61     0  02:09     0.00275        1.52       0.027
  WS02006287           JUNCTION      0.00   211.51     0  02:08           0        1.52       0.047
  WSF200               JUNCTION      0.00   546.04     0  04:48           0        9.15       0.038
  HS02004901           JUNCTION     10.32    10.32     0  01:33      0.0589      0.0592       3.057
  HS02004881           JUNCTION      4.36    42.78     0  02:08      0.0257       0.274       0.078
  HS02004876           JUNCTION      7.70    38.75     0  02:07      0.0495       0.249       0.212
  HS02004870           JUNCTION      7.94    31.07     0  02:07      0.0487       0.199       0.052
  HS02004862           JUNCTION      7.72    23.49     0  02:08      0.0547       0.151       0.111
  HS02004856           JUNCTION      5.92    15.80     0  02:08      0.0367      0.0975       1.489
  HS02004852           JUNCTION      0.00    10.11     0  02:08           0      0.0609       0.083
  HS02004848           JUNCTION     17.42    17.42     0  02:08       0.117       0.117       0.035
  HS02004842           JUNCTION      0.00     7.32     0  02:10           0      0.0695      23.016
  HS02004837           JUNCTION     19.60    26.85     0  02:07       0.268       0.324       0.251
  HS02004830           JUNCTION      0.15    26.99     0  02:08     0.00432       0.315       0.393
  HS02004824           JUNCTION     21.48    48.47     0  02:09       0.154       0.467       0.115
  HS02004817           JUNCTION      0.60    49.06     0  02:09      0.0173       0.484       3.566
  HS02004807           JUNCTION     14.79    62.91     0  02:09      0.0896       0.558       0.787
  HS02004802           JUNCTION      0.00    62.92     0  02:10           0       0.556       0.719
  HS02004799           JUNCTION     11.62   130.75     0  01:37      0.0726       0.836       0.345
  HS02004792           JUNCTION     50.51   119.20     0  01:37        0.31       0.764       0.053
  HS02004788           JUNCTION     17.59    69.40     0  01:38       0.149       0.455       0.085
  HS02004785           JUNCTION      0.15    51.92     0  01:37     0.00432       0.308       0.156
  HS02004777           JUNCTION      0.03    52.01     0  01:35    0.000864       0.308       1.713
  HS02004770           JUNCTION     42.38    52.42     0  01:35       0.252       0.309       1.004
  HS02004480           JUNCTION      0.00   154.76     0  01:38           0       0.984       0.097
  HS02004479           JUNCTION      0.00    24.23     0  01:40           0        0.16       0.458
  HS02004478           JUNCTION      0.00   211.50     0  02:08           0        1.52       0.023
  YS02001745           JUNCTION    164.81   309.85     0  02:32        1.79         1.8       0.395
  YS02001748           JUNCTION      0.04   450.73     0  02:32      0.0013        1.79       1.081
  YS02001751           JUNCTION      0.01   318.24     0  02:20    0.000317        1.76       1.334
  YS02001754           JUNCTION      0.26   203.36     0  02:17     0.00749        1.75       1.423
  YS02001762           JUNCTION      0.00   230.22     0  02:28           0        1.65       1.286
  YS02001765           JUNCTION      0.00   224.49     0  02:28           0        1.65       1.476
  YS02001767           JUNCTION      0.54   219.70     0  02:28      0.0154        1.67       2.154
  YS02001770           JUNCTION    200.17   226.75     0  03:15        2.02        2.07       1.518
  YS02001774           JUNCTION      0.00   227.84     0  03:15           0       0.424       6.218
  YS02001779           JUNCTION      0.01   228.40     0  03:15    0.000144        0.39       4.005
  YS02001882           JUNCTION      0.00    12.29     0  03:08           0      0.0143      15.801
  YS02001884           JUNCTION      0.00    18.74     0  03:04           0      0.0452      13.652
  YS02001759           JUNCTION    190.15   420.78     0  02:28        1.87        3.45       0.662
  YS02001887           JUNCTION    235.45   249.78     0  02:22        2.17        2.19       0.353
  YS02001890           JUNCTION      0.00   244.47     0  02:32           0        2.15       0.395
  YS02001898           JUNCTION      0.00   247.67     0  02:22           0        2.14       0.116
  YS02001901           JUNCTION      0.00   254.33     0  02:30           0        2.14       0.292
  YS02001904           JUNCTION      0.00   251.52     0  02:29           0        2.13       0.266
  YS02001907           JUNCTION      0.00   486.23     0  02:58           0        4.71       0.495
  YS02001910           JUNCTION      0.00   236.93     0  02:58           0        2.59       0.423
  YS02001915           JUNCTION    143.92   228.83     0  02:59        1.51        2.59       0.201
  YS02001918           JUNCTION      0.00    84.08     0  03:08           0        1.09       0.145
  YS02001619           JUNCTION    141.15   141.15     0  02:54        1.49        1.49       0.797
  YS02001629           JUNCTION      0.00   196.12     0  02:17           0        1.41       2.011
  YS02001641           JUNCTION      0.00   327.90     0  02:30           0        3.08       0.682
  YS02001644           JUNCTION    157.29   819.30     0  03:10        1.72        6.25       0.416
  YS02001652           JUNCTION      0.00   255.45     0  02:26           0        1.58       1.522
  YS02001655           JUNCTION      0.15   357.10     0  02:19     0.00443         1.6       1.510
  YS02001920           JUNCTION      2.87    79.72     0  03:01      0.0827        1.09       0.235
  YS02001923           JUNCTION      0.04    76.85     0  03:01     0.00109        1.01       0.043
  YS02001926           JUNCTION      0.05    76.85     0  03:01      0.0015        1.01       0.289
  YS02001929           JUNCTION     76.81    76.81     0  03:01        1.01        1.01       0.041
  YS02001658           JUNCTION      0.00   596.46     0  02:27           0        1.65       1.102
  YS02001661           JUNCTION      0.00   515.62     0  02:51           0        2.13      -0.365
  YS02001664           JUNCTION    170.11   333.13     0  02:51        1.61        2.09       0.096
  YS02001622           JUNCTION      0.00   157.82     0  02:19           0        1.48       2.166
  YS02001633           JUNCTION    160.49   324.87     0  02:30        1.77        3.14       1.024
  YS02001649           JUNCTION      0.00   642.50     0  02:26           0        4.81       0.776
  YS02001757           JUNCTION      0.00  1144.19     0  02:41           0         8.4       1.101
  YS02001895           JUNCTION      0.00   249.62     0  02:32           0        2.14       0.210
  YS02001625           JUNCTION      0.00   196.24     0  02:17           0        1.45       2.751
  YS02163301           JUNCTION      0.00   175.30     0  02:30           0        1.39       1.731
  YS02163601           JUNCTION      0.11   326.09     0  02:30     0.00317        3.11       0.971
  YS02164001           JUNCTION      0.00   326.64     0  02:30           0        3.08       0.644
  YS02001647           JUNCTION      0.00   474.84     0  02:30           0        3.87       0.729
  YSB1154              JUNCTION     13.72    13.72     0  02:07      0.0881      0.0887       1.654
  YSB6556              JUNCTION      0.00    13.71     0  02:07           0      0.0895       1.414
  YSB1174              JUNCTION     11.39    11.39     0  01:33      0.0639      0.0643       2.032
  YSB1171              JUNCTION      0.00    24.41     0  01:39           0       0.159       4.138
  YS02006553           JUNCTION      0.00   468.75     0  02:54           0         4.7       0.318
  YS02006561           JUNCTION      0.00   697.46     0  02:27           0        6.64       0.015
  YS02006556           JUNCTION      0.00   471.47     0  03:00           0        4.71       0.226
  YS02006558           JUNCTION    205.21   687.31     0  02:27        1.99        6.67       0.063
  YS02001783           JUNCTION      0.00   672.12     0  02:59           0        6.64       0.022
  YS02001784           JUNCTION      1.06   672.16     0  02:28      0.0305        6.66       0.043
  YS02001786           JUNCTION      0.06   685.19     0  02:29     0.00162        6.66       0.038
  YS02001788           JUNCTION      0.07   715.67     0  02:29     0.00204        6.66       0.025
  YS02001790           JUNCTION      0.15   753.59     0  02:28     0.00446        6.67       0.020
  YS02001791           JUNCTION      0.00   791.10     0  02:29           0        6.66       0.035
  YS02001793           JUNCTION      0.00   827.55     0  02:29           0        6.67       0.148
  WSC                  OUTFALL       0.00   951.03     0  06:33           0          20       0.000
  JK-storage           STORAGE       0.00   869.99     0  03:08           0        6.81     -13.672
  CC-storage           STORAGE       0.00  1144.21     0  02:31           0        7.41       0.759
  XR-storage           STORAGE     515.95   515.95     0  02:56        9.62        10.2      -1.511
  
  
  **********************
  Node Surcharge Summary
  **********************
  
  Surcharging occurs when water rises above the top of the highest conduit.
  ---------------------------------------------------------------------
                                               Max. Height   Min. Depth
                                   Hours       Above Crown    Below Rim
  Node                 Type      Surcharged         Meters       Meters
  ---------------------------------------------------------------------
  WS02006109           JUNCTION        3.61          0.172        1.648
  WS02006110           JUNCTION        1.00          0.022        1.828
  WS02006112           JUNCTION        1.21          0.066        1.614
  WS02006230           JUNCTION        0.94          0.039        1.531
  WS02006231           JUNCTION        1.13          0.161        1.369
  WS02006232           JUNCTION        2.85          0.368        1.112
  WS02006234           JUNCTION        2.20          0.357        0.883
  WS02006235           JUNCTION        2.50          0.460        0.830
  WS02006238           JUNCTION        2.60          0.474        0.956
  WS02006240           JUNCTION        2.14          0.428        0.962
  WS02006242           JUNCTION        2.36          0.490        0.330
  WS02006243           JUNCTION        1.57          0.418        0.352
  WS02006245           JUNCTION        1.43          0.404        0.446
  WS02006247           JUNCTION        1.47          0.426        0.334
  WS02006248           JUNCTION        1.28          0.360        0.020
  WS02006249           JUNCTION        1.33          0.390        0.000
  WS02006239           JUNCTION        2.32          0.437        0.853
  WS02006251           JUNCTION        0.89          0.178        1.002
  WS02006252           JUNCTION        2.24          0.349        0.751
  WS02006253           JUNCTION        0.90          0.209        2.271
  WS02006256           JUNCTION        6.93          2.050        0.000
  WS02006228           JUNCTION        3.57          0.205        1.995
  YS02001748           JUNCTION        4.19          0.642        0.548
  YS02001751           JUNCTION        5.62          0.689        0.511
  YS02001754           JUNCTION        5.91          0.769        0.381
  YS02001762           JUNCTION        6.13          1.036        0.114
  YS02001765           JUNCTION        6.10          0.983        0.117
  YS02001767           JUNCTION        6.07          0.932        0.098
  YS02001770           JUNCTION        6.05          0.901        0.019
  YS02001774           JUNCTION        6.13          0.994        0.056
  YS02001779           JUNCTION        5.89          0.680        0.000
  YS02001759           JUNCTION        6.16          1.071        0.139
  YS02001907           JUNCTION        0.94          0.053        0.897
  YS02001619           JUNCTION        5.58          0.600        0.010
  YS02001629           JUNCTION        5.60          0.470        0.000
  YS02001641           JUNCTION        6.11          0.941        0.159
  YS02001644           JUNCTION        6.11          0.920        0.000
  YS02001652           JUNCTION        5.97          1.094        0.036
  YS02001655           JUNCTION        5.64          1.200        0.000
  YS02001658           JUNCTION        4.28          1.069        0.231
  YS02001661           JUNCTION        0.15          1.066        0.324
  YS02001622           JUNCTION        5.65          0.555        0.065
  YS02001633           JUNCTION        6.08          0.937        0.123
  YS02001649           JUNCTION        6.14          1.050        0.000
  YS02001757           JUNCTION        6.24          1.174        0.036
  YS02001625           JUNCTION        6.00          0.780        0.000
  YS02163301           JUNCTION        6.07          0.889        0.141
  YS02163601           JUNCTION        6.14          1.009        0.071
  YS02164001           JUNCTION        6.10          0.940        0.160
  YS02001647           JUNCTION        5.98          0.803        0.097
  YS02006553           JUNCTION        1.07          0.067        1.123
  YS02001783           JUNCTION        0.16          0.242        1.358
  YS02001784           JUNCTION        0.26          0.361        1.129
  YS02001786           JUNCTION        0.16          0.431        0.999
  YS02001788           JUNCTION        0.10          0.468        1.012
  YS02001790           JUNCTION        0.81          1.157        0.000
  YS02001791           JUNCTION        0.88          1.920        0.000
  YS02001793           JUNCTION        1.22          2.507        0.093
  
  
  *********************
  Node Flooding Summary
  *********************
  
  Flooding refers to all water that overflows a node, whether it ponds or not.
  --------------------------------------------------------------------------
                                                             Total   Maximum
                                 Maximum   Time of Max       Flood    Ponded
                        Hours       Rate    Occurrence      Volume     Depth
  Node                 Flooded       LPS   days hr:min    10^6 ltr    Meters
  --------------------------------------------------------------------------
  WS02006249              0.86     76.76      0  04:40       0.208     0.000
  WS02006256              3.36    978.40      0  00:00       3.959     0.000
  YS02001779              1.79    228.19      0  03:15       0.369     0.000
  YS02001629              0.01     30.74      0  02:32       0.000     0.000
  YS02001644              2.77    819.13      0  03:11       3.815     0.000
  YS02001655              0.01    171.97      0  02:19       0.000     0.000
  YS02001649              0.04     36.18      0  02:51       0.001     0.000
  YS02001625              0.07     21.73      0  02:33       0.001     0.000
  YS02001790              0.01    139.93      0  03:10       0.000     0.000
  YS02001791              0.01    199.33      0  04:16       0.000     0.000
  JK-storage              0.58    511.03      0  03:12       0.529     0.000
  
  
  **********************
  Storage Volume Summary
  **********************
  
  --------------------------------------------------------------------------------------------------
                         Average     Avg  Evap Exfil       Maximum     Max    Time of Max    Maximum
                          Volume    Pcnt  Pcnt  Pcnt        Volume    Pcnt     Occurrence    Outflow
  Storage Unit           1000 m3    Full  Loss  Loss       1000 m3    Full    days hr:min        LPS
  --------------------------------------------------------------------------------------------------
  JK-storage               0.124      43     0     0         0.291     100       0  02:11     983.00
  CC-storage               3.111      20     0     0         3.847      25       0  03:11     400.00
  XR-storage               0.478      52     0     0         0.805      87       0  04:23     380.00
  
  
  ***********************
  Outfall Loading Summary
  ***********************
  
  ---------------------------------------------------------------------------------------------------------------------------------
                         Flow       Avg       Max       Total         Total         Total         Total         Total         Total
                         Freq      Flow      Flow      Volume           COD            SS            TN            TP         NH4-N
  Outfall Node           Pcnt       LPS       LPS    10^6 ltr            kg            kg            kg            kg            kg
  ---------------------------------------------------------------------------------------------------------------------------------
  WSC                   99.99    760.63    951.03      19.959      2347.409      3889.763       171.731        20.635       105.124
  ---------------------------------------------------------------------------------------------------------------------------------
  System                99.99    760.63    951.03      19.959      2347.409      3889.763       171.731        20.635       105.124
  
  
  ********************
  Link Flow Summary
  ********************
  
  -----------------------------------------------------------------------------
                                 Maximum  Time of Max   Maximum    Max/    Max/
                                  |Flow|   Occurrence   |Veloc|    Full    Full
  Link                 Type          LPS  days hr:min     m/sec    Flow   Depth
  -----------------------------------------------------------------------------
  WS02003066WSF200     CONDUIT    546.04     0  04:48      2.77    0.09    0.23
  WS02006287WS02006284 CONDUIT    211.51     0  02:09      1.64    0.10    0.22
  WS02006284WS02006280 CONDUIT    211.61     0  02:09      1.88    0.09    0.20
  WS02006280WS02006229 CONDUIT    211.61     0  02:09      3.02    0.05    0.14
  WS02006229WS02006228 CONDUIT    548.92     0  04:39      1.09    1.82    1.00
  WS02006256WS02006235 CONDUIT    288.60     0  00:00      4.23    3.05    1.00
  WS02006253WS02006251 CONDUIT     43.76     0  02:08      0.50    0.13    1.00
  WS02006252WS02006251 CONDUIT    401.10     0  05:26      3.19    1.47    1.00
  WS02006251WS02006249 CONDUIT    402.67     0  04:40      1.13    1.16    1.00
  WS02006249WS02006248 CONDUIT    398.32     0  05:29      1.19    2.18    1.00
  WS02006248WS02006247 CONDUIT    398.19     0  05:30      1.16    0.87    1.00
  WS02006247WS02006245 CONDUIT    398.45     0  05:30      1.13    3.16    1.00
  WS02006245WS02006243 CONDUIT    398.13     0  05:30      1.17    1.18    1.00
  WS02006243WS02006242 CONDUIT    398.04     0  05:30      1.06    0.85    1.00
  WS02006242WS02006240 CONDUIT    398.05     0  05:30      1.03    1.58    1.00
  WS02006240WS02006239 CONDUIT    397.97     0  05:30      1.03    1.25    1.00
  WS02006239WS02006238 CONDUIT    398.10     0  05:30      1.03    1.27    1.00
  WS02006238WS02006235 CONDUIT    398.84     0  05:30      1.46    0.89    1.00
  WS02006235WS02006234 CONDUIT    522.22     0  06:10      1.36    5.51    1.00
  WS02006234WS02006232 CONDUIT    521.96     0  06:10      1.39    1.06    1.00
  WS02006232WS02006231 CONDUIT    522.24     0  06:12      1.36    1.09    1.00
  WS02006231WS02006230 CONDUIT    522.18     0  06:10      1.39    7.92    1.00
  WS02006230WS02006229 CONDUIT    532.34     0  06:12      1.38   11.85    1.00
  WS02006228WS02006109 CONDUIT    548.69     0  04:39      1.09    2.40    1.00
  WS02006116WS02004401 CONDUIT    548.47     0  04:44      0.77    0.76    0.85
  WS02006115WS02006116 CONDUIT    549.21     0  04:44      0.86    0.70    0.77
  WS02006113WS02006111 CONDUIT    575.51     0  04:43      2.49    0.69    0.47
  WS02006112WS02006115 CONDUIT    553.57     0  04:43      0.76    0.33    0.88
  WS02006111WS02006112 CONDUIT    554.51     0  04:43      1.54    0.26    0.68
  WS02006110WS02006113 CONDUIT    549.95     0  04:39      1.30    0.50    0.79
  WS02006109WS02006110 CONDUIT    549.67     0  04:39      1.09    1.06    1.00
  WS02004411WS02004412 CONDUIT    546.27     0  04:47      0.93    0.78    0.70
  WS02004401WS02004402 CONDUIT    548.12     0  04:44      0.75    0.66    0.87
  WS02004413WS02003067 CONDUIT    545.94     0  04:47      1.12    0.23    0.60
  WS02004412WS02004413 CONDUIT    546.03     0  04:47      0.84    0.37    0.78
  WS02004410WS02004411 CONDUIT    546.60     0  04:46      0.94    0.75    0.69
  WS02004409WS02004410 CONDUIT    547.12     0  04:46      0.96    0.71    0.68
  WS02004407WS02004409 CONDUIT    547.83     0  04:46      1.45    0.19    0.49
  WS02004406WS02004407 CONDUIT    547.93     0  04:46      1.05    0.24    0.63
  WS02004405WS02004406 CONDUIT    548.13     0  04:46      0.71    1.08    0.96
  WS02004404WS02004405 CONDUIT    547.98     0  04:45      0.71    5.37    0.97
  WS02004403WS02004404 CONDUIT    547.80     0  04:45      0.72    0.40    0.93
  WS02004402WS02004403 CONDUIT    547.97     0  04:45      0.74    0.79    0.89
  WS02004139WS02001211 CONDUIT    382.18     0  07:08      0.90    0.48    0.60
  WS02004138WS02004139 CONDUIT    396.19     0  00:00      3.65    0.08    0.44
  WS02003067WS02003066 CONDUIT    546.01     0  04:47      1.22    0.17    0.42
  WS02001213WS02003059 CONDUIT    396.65     0  04:10      0.88    0.65    0.78
  WS02001212WS02001213 CONDUIT    393.44     0  07:07      1.32    0.61    0.47
  WS02001211WS02001212 CONDUIT    391.60     0  07:08      0.78    0.30    0.65
  WS02003072WS02003073 CONDUIT    949.23     0  06:32      1.73    2.05    0.49
  WS02003069WS02003072 CONDUIT    949.24     0  06:32      1.63    0.46    0.51
  WS02003060WS02003069 CONDUIT    948.96     0  06:32      1.87    0.37    0.46
  WS02003059WS02003060 CONDUIT    401.24     0  04:10      0.95    0.26    0.66
  HS02004901HS02004770 CONDUIT     10.06     0  01:36      0.07    0.04    0.32
  HS02004876HS02004881 CONDUIT     38.77     0  02:08      0.61    0.41    0.09
  HS02004870HS02004876 CONDUIT     31.06     0  02:08      0.43    0.02    0.10
  HS02004842HS02004848 CONDUIT      7.32     0  02:10      0.04    0.00    0.28
  HS02004837HS02004842 CONDUIT      7.42     0  02:12      0.42    0.00    0.29
  HS02004830HS02004837 CONDUIT     26.84     0  02:08      0.47    0.03    0.08
  HS02004824HS02004830 CONDUIT     26.99     0  02:09      0.49    0.04    0.08
  HS02004817HS02004824 CONDUIT     48.46     0  02:09      0.17    0.02    0.41
  HS02004770HS02004777 CONDUIT     51.98     0  01:35      0.24    0.10    0.33
  HS02004799HS02004480 CONDUIT    130.65     0  01:37      0.59    0.17    0.31
  HS02004792HS02004799 CONDUIT    119.17     0  01:37      0.68    0.07    0.25
  HS02004788HS02004792 CONDUIT     69.38     0  01:38      0.83    0.05    0.12
  HS02004785HS02004788 CONDUIT     51.88     0  01:38      0.51    0.39    0.14
  HS02004777HS02004785 CONDUIT     51.77     0  01:37      0.27    0.06    0.27
  HS02004480HS02004478 CONDUIT    154.63     0  01:38      0.96    0.65    0.23
  HS02004479HS02004480 CONDUIT     24.37     0  01:40      0.35    0.02    0.31
  HS02004862HS02004870 CONDUIT     23.48     0  02:08      0.50    0.03    0.07
  HS02004848HS02004852 CONDUIT     10.11     0  02:08      0.34    0.01    0.04
  HS02004856HS02004862 CONDUIT     15.79     0  02:08      0.36    0.02    0.06
  HS02004852HS02004856 CONDUIT     10.10     0  02:09      0.15    0.01    0.10
  HS02004802HS02004478 CONDUIT     63.02     0  02:11      0.35    0.06    0.26
  HS02004478WS02006287 CONDUIT    211.51     0  02:08      1.33    0.06    0.18
  HS02004817HS02004807 CONDUIT     49.16     0  02:11      0.13    0.03    0.53
  HS02004807HS02004802 CONDUIT     62.92     0  02:10      0.29    0.12    0.31
  YS02001759YS02001757 CONDUIT    424.32     0  02:28      0.54    0.30    1.00
  YS02001762YS02001759 CONDUIT    235.47     0  02:28      0.30    0.27    1.00
  YS02001765YS02001762 CONDUIT    230.22     0  02:28      0.31    0.22    1.00
  YS02001770YS02001767 CONDUIT    219.16     0  02:28      0.39    0.87    1.00
  YS02001774YS02001770 CONDUIT    227.84     0  03:15      0.31    0.15    1.00
  YS02001779YS02001774 CONDUIT    228.39     0  03:15      0.29    0.12    1.00
  YS02001649YS02001757 CONDUIT    643.95     0  02:26      0.82    0.39    1.00
  YS02001767YS02001765 CONDUIT    224.49     0  02:28      0.38    0.28    1.00
  YS02006561YS02001783 CONDUIT    672.12     0  02:59      2.10    0.35    0.71
  YS02001783YS02001784 CONDUIT    671.10     0  02:28      1.58    0.93    1.00
  YS02001784YS02001785 CONDUIT    685.13     0  02:29      1.70    1.59    1.00
  YS02001788YS02001790 CONDUIT    753.44     0  02:28      2.24    0.56    1.00
  YS02001790YS02001791 CONDUIT    791.10     0  02:29      2.71    0.86    1.00
  YS02001791YS02001793 CONDUIT    827.55     0  02:29      5.51    0.36    1.00
  YS02001910YS02001907 CONDUIT    241.68     0  02:59      0.49    0.14    0.91
  YS02001786YS02001788 CONDUIT    715.60     0  02:29      2.15    1.38    1.00
  YS02001915YS02001910 CONDUIT    236.93     0  02:58      0.62    0.12    0.72
  YS02001918YS02001915 CONDUIT     90.60     0  03:08      0.44    0.05    0.44
  YS02001923YS02001920 CONDUIT     76.85     0  03:01      0.61    0.03    0.23
  YS02001926YS02001923 CONDUIT     76.81     0  03:01      0.70    0.11    0.20
  YS02001929YS02001926 CONDUIT     76.80     0  03:01      0.75    0.04    0.19
  YS02001920YS02001918 CONDUIT     84.08     0  03:08      0.61    0.08    0.30
  YS02001629YS02163301 CONDUIT    175.30     0  02:30      0.22    0.22    1.00
  YS02001619YS02001622 CONDUIT    157.82     0  02:19      0.64    0.23    1.00
  YS02001622YS02001625 CONDUIT    196.24     0  02:17      0.42    0.10    1.00
  YS02001625YS02001629 CONDUIT    196.12     0  02:17      0.25    0.09    1.00
  YS02163301YS02001633 CONDUIT    176.97     0  02:30      0.23    0.17    1.00
  YS02163601YS02164001 CONDUIT    326.64     0  02:30      0.42    0.29    1.00
  YS02164001YS02001641 CONDUIT    327.90     0  02:30      0.42    0.45    1.00
  YS02001641YS02001644 CONDUIT    328.02     0  02:30      0.42    1.06    1.00
  YS02001647YS02001649 CONDUIT    477.25     0  02:30      0.61    0.25    1.00
  YS02006553YS02006556 CONDUIT    471.47     0  03:00      0.60    0.40    1.00
  YS02006556YS02006558 CONDUIT    484.60     0  02:27      0.62    0.38    1.00
  YSB6556YSB1171       CONDUIT     13.72     0  02:08      0.09    0.01    0.58
  YS02001907YS02006553 CONDUIT    468.75     0  02:54      0.52    0.55    1.00
  YS02006558YS02006561 CONDUIT    697.46     0  02:27      3.19    1.54    0.75
  YS02001633YS02163601 CONDUIT    325.98     0  02:30      0.42    0.34    1.00
  YS02001644YS02001647 CONDUIT    474.84     0  02:30      0.60    0.28    1.00
  YS02001745YS02001748 CONDUIT    450.69     0  02:32      1.46    0.17    0.94
  YS02001748YS02001751 CONDUIT    318.23     0  02:20      1.10    0.16    1.00
  YS02001751YS02001754 CONDUIT    203.10     0  02:17      0.95    0.10    1.00
  YS02001754YS02001757 CONDUIT    205.08     0  02:17      0.33    0.08    1.00
  YS02001882YS02001884 CONDUIT     17.66     0  03:08      0.15    0.02    0.66
  YS02001884YS02001887 CONDUIT     28.67     0  03:08      0.11    0.04    0.75
  YS02001890YS02001895 CONDUIT    249.62     0  02:32      0.42    0.12    0.72
  YS02001895YS02001898 CONDUIT    247.67     0  02:22      0.55    0.43    0.58
  YS02001898YS02001901 CONDUIT    254.33     0  02:30      0.47    0.16    0.66
  YS02001901YS02001904 CONDUIT    251.52     0  02:29      0.43    0.39    0.71
  YS02001904YS02001907 CONDUIT    253.37     0  02:33      0.36    0.09    0.85
  YS02001887YS02001890 CONDUIT    244.47     0  02:32      0.36    0.42    0.81
  YS02001652YS02001649 CONDUIT    256.11     0  02:26      0.68    0.13    1.00
  YS02001655YS02001652 CONDUIT    255.45     0  02:26      1.03    0.12    1.00
  YS02001658YS02001655 CONDUIT    356.95     0  02:19      1.27    0.15    1.00
  YS02001661YS02001658 CONDUIT    596.46     0  02:27      1.54    0.23    1.00
  YS02001664YS02001661 CONDUIT    515.62     0  02:51      1.40    0.16    0.72
  YSB1154YSB6556       CONDUIT     13.71     0  02:07      0.15    0.02    0.47
  YSB1174YSB1171       CONDUIT     11.36     0  01:35      0.06    0.02    0.58
  YSB1171HS02004479    CONDUIT     24.23     0  01:40      0.54    0.02    0.45
  HS02004881HS02006253 CONDUIT     42.78     0  02:08      1.73    0.01    0.50
  YS02001793JiankangQianchi CONDUIT    869.99     0  03:08     17.30    0.07    1.00
  YS02001757CaochengTiaoxuchi CONDUIT   1144.21     0  02:31      1.60    0.50    1.00
  WSF200WS02003060     CONDUIT    546.17     0  04:48      1.59    0.12    0.34
  1                    CONDUIT    951.03     0  06:33      3.28    0.33    0.40
  CC-Pump-1            PUMP       200.00     0  03:20              1.00
  CC-Pump-2            PUMP       200.00     0  05:20              1.00
  JK-Pump-1            PUMP       300.00     0  00:00              1.00
  JK-Pump-2            PUMP       683.00     0  00:00              1.00
  XR-Pump-1            PUMP        95.00     0  00:00              1.00
  XR-Pump-2            PUMP        95.00     0  00:00              1.00
  XR-Pump-3            PUMP        95.00     0  00:00              1.00
  XR-Pump-4            PUMP        95.00     0  00:00              1.00
  
  
  ***************************
  Flow Classification Summary
  ***************************
  
  -------------------------------------------------------------------------------------
                      Adjusted    ---------- Fraction of Time in Flow Class ---------- 
                       /Actual         Up    Down  Sub   Sup   Up    Down  Norm  Inlet 
  Conduit               Length    Dry  Dry   Dry   Crit  Crit  Crit  Crit  Ltd   Ctrl  
  -------------------------------------------------------------------------------------
  WS02003066WSF200        1.00   0.02  0.04  0.00  0.00  0.94  0.00  0.00  0.58  0.00
  WS02006287WS02006284    1.00   0.02  0.01  0.00  0.66  0.31  0.00  0.00  0.73  0.00
  WS02006284WS02006280    1.00   0.03  0.00  0.00  0.00  0.00  0.00  0.97  0.00  0.00
  WS02006280WS02006229    1.00   0.03  0.00  0.00  0.00  0.00  0.00  0.97  0.00  0.00
  WS02006229WS02006228    1.00   0.00  0.00  0.00  1.00  0.00  0.00  0.00  0.00  0.00
  WS02006256WS02006235    1.00   0.00  0.00  0.00  1.00  0.00  0.00  0.00  0.00  0.00
  WS02006253WS02006251    1.00   0.01  0.01  0.00  0.97  0.00  0.01  0.00  0.00  0.00
  WS02006252WS02006251    1.00   0.18  0.00  0.00  0.05  0.00  0.77  0.00  0.00  0.00
  WS02006251WS02006249    1.00   0.00  0.00  0.00  1.00  0.00  0.00  0.00  0.17  0.00
  WS02006249WS02006248    1.00   0.00  0.01  0.00  0.94  0.00  0.05  0.00  0.00  0.00
  WS02006248WS02006247    1.00   0.01  0.00  0.00  0.98  0.00  0.00  0.01  0.11  0.00
  WS02006247WS02006245    1.00   0.01  0.00  0.00  0.97  0.00  0.00  0.02  0.00  0.00
  WS02006245WS02006243    1.00   0.00  0.00  0.00  0.96  0.00  0.00  0.03  0.02  0.00
  WS02006243WS02006242    1.00   0.00  0.00  0.00  1.00  0.00  0.00  0.00  0.20  0.00
  WS02006242WS02006240    1.00   0.00  0.00  0.00  1.00  0.00  0.00  0.00  0.00  0.00
  WS02006240WS02006239    1.00   0.00  0.00  0.00  0.96  0.00  0.00  0.04  0.01  0.00
  WS02006239WS02006238    1.00   0.00  0.00  0.00  1.00  0.00  0.00  0.00  0.12  0.00
  WS02006238WS02006235    1.00   0.00  0.00  0.00  1.00  0.00  0.00  0.00  0.00  0.00
  WS02006235WS02006234    1.00   0.00  0.00  0.00  0.97  0.00  0.03  0.00  0.00  0.00
  WS02006234WS02006232    1.00   0.00  0.00  0.00  1.00  0.00  0.00  0.00  0.09  0.00
  WS02006232WS02006231    1.00   0.00  0.00  0.00  1.00  0.00  0.00  0.00  0.00  0.00
  WS02006231WS02006230    1.00   0.00  0.00  0.00  0.71  0.00  0.29  0.00  0.00  0.00
  WS02006230WS02006229    1.00   0.00  0.00  0.00  1.00  0.00  0.00  0.00  0.01  0.00
  WS02006228WS02006109    1.00   0.00  0.00  0.00  1.00  0.00  0.00  0.00  0.00  0.00
  WS02006116WS02004401    1.00   0.01  0.00  0.00  0.99  0.00  0.00  0.00  0.01  0.00
  WS02006115WS02006116    1.00   0.01  0.00  0.00  0.98  0.00  0.00  0.02  0.01  0.00
  WS02006113WS02006111    1.00   0.00  0.00  0.00  0.00  0.99  0.00  0.00  0.16  0.00
  WS02006112WS02006115    1.00   0.01  0.00  0.00  0.99  0.00  0.00  0.00  0.00  0.00
  WS02006111WS02006112    1.00   0.01  0.00  0.00  0.99  0.00  0.00  0.00  0.98  0.00
  WS02006110WS02006113    1.00   0.00  0.00  0.00  1.00  0.00  0.00  0.00  0.00  0.00
  WS02006109WS02006110    1.00   0.00  0.00  0.00  1.00  0.00  0.00  0.00  0.00  0.00
  WS02004411WS02004412    1.00   0.04  0.00  0.00  0.96  0.00  0.00  0.00  0.00  0.00
  WS02004401WS02004402    1.00   0.01  0.00  0.00  0.99  0.00  0.00  0.00  0.01  0.00
  WS02004413WS02003067    1.00   0.05  0.01  0.00  0.00  0.00  0.95  0.00  0.00  0.00
  WS02004412WS02004413    1.00   0.05  0.00  0.00  0.95  0.00  0.00  0.00  0.00  0.00
  WS02004410WS02004411    1.00   0.04  0.00  0.00  0.96  0.00  0.00  0.00  0.00  0.00
  WS02004409WS02004410    1.00   0.04  0.00  0.00  0.96  0.00  0.00  0.00  0.00  0.00
  WS02004407WS02004409    1.00   0.04  0.00  0.00  0.95  0.01  0.00  0.00  0.82  0.00
  WS02004406WS02004407    1.00   0.00  0.04  0.00  0.96  0.00  0.00  0.00  0.00  0.00
  WS02004405WS02004406    1.00   0.00  0.00  0.00  1.00  0.00  0.00  0.00  0.02  0.00
  WS02004404WS02004405    1.00   0.00  0.00  0.00  1.00  0.00  0.00  0.00  0.00  0.00
  WS02004403WS02004404    1.00   0.00  0.01  0.00  0.99  0.00  0.00  0.00  0.02  0.00
  WS02004402WS02004403    1.00   0.01  0.00  0.00  0.99  0.00  0.00  0.00  0.00  0.00
  WS02004139WS02001211    1.00   0.00  0.00  0.00  1.00  0.00  0.00  0.00  0.00  0.00
  WS02004138WS02004139    1.00   0.00  0.00  0.00  1.00  0.00  0.00  0.00  1.00  0.00
  WS02003067WS02003066    1.00   0.05  0.00  0.00  0.94  0.00  0.00  0.00  0.00  0.00
  WS02001213WS02003059    1.00   0.00  0.00  0.00  1.00  0.00  0.00  0.00  0.00  0.00
  WS02001212WS02001213    1.00   0.00  0.00  0.00  0.94  0.00  0.06  0.00  0.00  0.00
  WS02001211WS02001212    1.00   0.00  0.00  0.00  1.00  0.00  0.00  0.00  0.00  0.00
  WS02003072WS02003073    1.00   0.00  0.00  0.00  0.00  0.00  0.00  1.00  0.00  0.00
  WS02003069WS02003072    1.00   0.00  0.00  0.00  1.00  0.00  0.00  0.00  0.09  0.00
  WS02003060WS02003069    1.00   0.00  0.00  0.00  0.99  0.01  0.00  0.00  0.07  0.00
  WS02003059WS02003060    1.00   0.00  0.00  0.00  1.00  0.00  0.00  0.00  0.00  0.00
  HS02004901HS02004770    1.00   0.03  0.00  0.00  0.97  0.00  0.00  0.00  0.00  0.00
  HS02004876HS02004881    1.00   0.01  0.00  0.00  0.99  0.00  0.00  0.00  0.00  0.00
  HS02004870HS02004876    1.00   0.00  0.00  0.00  1.00  0.00  0.00  0.00  0.95  0.00
  HS02004842HS02004848    1.00   0.00  0.03  0.00  0.97  0.00  0.00  0.00  0.59  0.00
  HS02004837HS02004842    1.00   0.00  0.00  0.00  1.00  0.00  0.00  0.00  0.11  0.00
  HS02004830HS02004837    1.00   0.00  0.00  0.00  1.00  0.00  0.00  0.00  0.99  0.00
  HS02004824HS02004830    1.00   0.00  0.00  0.00  1.00  0.00  0.00  0.00  0.00  0.00
  HS02004817HS02004824    1.00   0.00  0.00  0.00  1.00  0.00  0.00  0.00  1.00  0.00
  HS02004770HS02004777    1.00   0.00  0.03  0.00  0.97  0.00  0.00  0.00  0.02  0.00
  HS02004799HS02004480    1.00   0.00  0.01  0.00  0.97  0.00  0.02  0.00  0.00  0.00
  HS02004792HS02004799    1.00   0.00  0.00  0.00  1.00  0.00  0.00  0.00  0.98  0.00
  HS02004788HS02004792    1.00   0.00  0.00  0.00  1.00  0.00  0.00  0.00  0.98  0.00
  HS02004785HS02004788    1.00   0.00  0.00  0.00  1.00  0.00  0.00  0.00  0.00  0.00
  HS02004777HS02004785    1.00   0.00  0.00  0.00  1.00  0.00  0.00  0.00  0.11  0.00
  HS02004480HS02004478    1.00   0.03  0.00  0.00  0.71  0.00  0.00  0.26  0.00  0.00
  HS02004479HS02004480    1.00   0.01  0.00  0.00  0.99  0.00  0.00  0.00  0.11  0.00
  HS02004862HS02004870    1.00   0.00  0.00  0.00  1.00  0.00  0.00  0.00  0.03  0.00
  HS02004848HS02004852    1.00   0.03  0.00  0.00  0.97  0.00  0.00  0.00  0.79  0.00
  HS02004856HS02004862    1.00   0.00  0.04  0.00  0.96  0.00  0.00  0.00  0.84  0.00
  HS02004852HS02004856    1.00   0.03  0.00  0.00  0.97  0.00  0.00  0.00  0.86  0.00
  HS02004802HS02004478    1.00   0.03  0.00  0.00  0.97  0.00  0.00  0.00  0.02  0.00
  HS02004478WS02006287    1.00   0.03  0.00  0.00  0.82  0.15  0.00  0.00  0.72  0.00
  HS02004817HS02004807    1.00   0.00  0.03  0.00  0.97  0.00  0.00  0.00  0.01  0.00
  HS02004807HS02004802    1.00   0.03  0.00  0.00  0.97  0.00  0.00  0.00  0.00  0.00
  YS02001759YS02001757    1.00   0.00  0.00  0.00  1.00  0.00  0.00  0.00  0.15  0.00
  YS02001762YS02001759    1.00   0.00  0.00  0.00  1.00  0.00  0.00  0.00  0.02  0.00
  YS02001765YS02001762    1.00   0.00  0.00  0.00  1.00  0.00  0.00  0.00  0.13  0.00
  YS02001770YS02001767    1.00   0.00  0.00  0.00  1.00  0.00  0.00  0.00  0.00  0.00
  YS02001774YS02001770    1.00   0.00  0.03  0.00  0.97  0.00  0.00  0.00  0.02  0.00
  YS02001779YS02001774    1.00   0.00  0.00  0.00  1.00  0.00  0.00  0.00  0.17  0.00
  YS02001649YS02001757    1.00   0.00  0.00  0.00  1.00  0.00  0.00  0.00  0.15  0.00
  YS02001767YS02001765    1.00   0.00  0.00  0.00  1.00  0.00  0.00  0.00  0.00  0.00
  YS02006561YS02001783    1.00   0.04  0.00  0.00  0.13  0.84  0.00  0.00  0.62  0.00
  YS02001783YS02001784    1.00   0.00  0.04  0.00  0.96  0.00  0.00  0.00  0.00  0.00
  YS02001784YS02001785    1.00   0.00  0.00  0.00  1.00  0.00  0.00  0.00  0.16  0.00
  YS02001788YS02001790    1.00   0.00  0.00  0.00  0.22  0.78  0.00  0.00  0.56  0.00
  YS02001790YS02001791    1.00   0.00  0.00  0.00  0.20  0.80  0.00  0.00  0.60  0.00
  YS02001791YS02001793    1.00   0.00  0.00  0.00  0.29  0.71  0.00  0.00  0.06  0.00
  YS02001910YS02001907    1.00   0.00  0.00  0.00  0.99  0.00  0.00  0.01  0.12  0.00
  YS02001786YS02001788    1.00   0.00  0.00  0.00  0.18  0.82  0.00  0.00  0.00  0.00
  YS02001915YS02001910    1.00   0.00  0.00  0.00  0.99  0.01  0.00  0.00  0.13  0.00
  YS02001918YS02001915    1.00   0.00  0.00  0.00  0.99  0.00  0.00  0.00  0.63  0.00
  YS02001923YS02001920    1.00   0.00  0.00  0.00  1.00  0.00  0.00  0.00  1.00  0.00
  YS02001926YS02001923    1.00   0.00  0.02  0.00  0.00  0.00  0.98  0.00  0.00  0.00
  YS02001929YS02001926    1.00   0.00  0.03  0.00  0.97  0.00  0.00  0.00  0.87  0.00
  YS02001920YS02001918    1.00   0.00  0.00  0.00  1.00  0.00  0.00  0.00  0.00  0.00
  YS02001629YS02163301    1.00   0.03  0.00  0.00  0.97  0.00  0.00  0.00  0.00  0.00
  YS02001619YS02001622    1.00   0.03  0.00  0.00  0.97  0.00  0.00  0.00  0.00  0.00
  YS02001622YS02001625    1.00   0.03  0.00  0.00  0.97  0.00  0.00  0.00  0.03  0.00
  YS02001625YS02001629    1.00   0.03  0.01  0.00  0.95  0.00  0.01  0.00  0.00  0.00
  YS02163301YS02001633    1.00   0.00  0.03  0.00  0.97  0.00  0.00  0.00  0.00  0.00
  YS02163601YS02164001    1.00   0.00  0.02  0.00  0.98  0.00  0.00  0.00  0.00  0.00
  YS02164001YS02001641    1.00   0.00  0.02  0.00  0.98  0.00  0.00  0.00  0.05  0.00
  YS02001641YS02001644    1.00   0.00  0.00  0.00  1.00  0.00  0.00  0.00  0.00  0.00
  YS02001647YS02001649    1.00   0.00  0.04  0.00  0.96  0.00  0.00  0.00  0.01  0.00
  YS02006553YS02006556    1.00   0.00  0.00  0.00  1.00  0.00  0.00  0.00  0.03  0.00
  YS02006556YS02006558    1.00   0.00  0.00  0.00  1.00  0.00  0.00  0.00  0.00  0.00
  YSB6556YSB1171          1.00   0.01  0.02  0.00  0.97  0.00  0.00  0.00  0.00  0.00
  YS02001907YS02006553    1.00   0.00  0.01  0.00  0.99  0.00  0.00  0.00  0.00  0.00
  YS02006558YS02006561    1.00   0.04  0.00  0.00  0.00  0.96  0.00  0.00  0.60  0.00
  YS02001633YS02163601    1.00   0.00  0.00  0.00  1.00  0.00  0.00  0.00  0.14  0.00
  YS02001644YS02001647    1.00   0.00  0.04  0.00  0.96  0.00  0.00  0.00  0.00  0.00
  YS02001745YS02001748    1.00   0.00  0.00  0.00  0.93  0.01  0.00  0.07  0.05  0.00
  YS02001748YS02001751    1.00   0.00  0.00  0.00  0.98  0.02  0.00  0.00  0.14  0.00
  YS02001751YS02001754    1.00   0.00  0.00  0.00  0.96  0.00  0.00  0.04  0.02  0.00
  YS02001754YS02001757    1.00   0.00  0.00  0.00  1.00  0.00  0.00  0.00  0.17  0.00
  YS02001882YS02001884    1.00   0.03  0.00  0.00  0.97  0.00  0.00  0.00  0.00  0.00
  YS02001884YS02001887    1.00   0.01  0.01  0.00  0.97  0.00  0.00  0.00  0.00  0.00
  YS02001890YS02001895    1.00   0.00  0.03  0.00  0.97  0.00  0.00  0.00  0.00  0.00
  YS02001895YS02001898    1.00   0.03  0.00  0.00  0.96  0.00  0.01  0.00  0.00  0.00
  YS02001898YS02001901    1.00   0.03  0.00  0.00  0.97  0.00  0.00  0.00  0.01  0.00
  YS02001901YS02001904    1.00   0.03  0.00  0.00  0.96  0.00  0.00  0.00  0.00  0.00
  YS02001904YS02001907    1.00   0.00  0.03  0.00  0.96  0.00  0.00  0.00  0.00  0.00
  YS02001887YS02001890    1.00   0.00  0.00  0.00  0.99  0.00  0.01  0.00  0.00  0.00
  YS02001652YS02001649    1.00   0.00  0.00  0.00  1.00  0.00  0.00  0.00  0.15  0.00
  YS02001655YS02001652    1.00   0.00  0.00  0.00  0.96  0.00  0.00  0.04  0.02  0.00
  YS02001658YS02001655    1.00   0.00  0.03  0.00  0.95  0.02  0.00  0.00  0.06  0.00
  YS02001661YS02001658    1.00   0.03  0.00  0.00  0.93  0.04  0.00  0.00  0.07  0.00
  YS02001664YS02001661    1.00   0.03  0.00  0.00  0.93  0.05  0.00  0.00  0.19  0.00
  YSB1154YSB6556          1.00   0.03  0.00  0.00  0.97  0.00  0.00  0.00  0.01  0.00
  YSB1174YSB1171          1.00   0.01  0.01  0.00  0.98  0.00  0.00  0.00  0.00  0.00
  YSB1171HS02004479       1.00   0.01  0.00  0.00  0.99  0.00  0.00  0.00  0.10  0.00
  HS02004881HS02006253    1.00   0.01  0.00  0.00  0.71  0.02  0.00  0.26  0.55  0.00
  YS02001793JiankangQianchi    1.00   0.00  0.00  0.00  0.69  0.31  0.00  0.00  0.47  0.00
  YS02001757CaochengTiaoxuchi    1.00   0.00  0.05  0.00  0.95  0.00  0.00  0.00  0.00  0.00
  WSF200WS02003060        1.00   0.00  0.02  0.00  0.98  0.00  0.00  0.00  0.42  0.00
  1                       1.00   0.00  0.00  0.00  0.00  1.00  0.00  0.00  0.47  0.00
  
  
  *************************
  Conduit Surcharge Summary
  *************************
  
  ----------------------------------------------------------------------------
                                                           Hours        Hours 
                         --------- Hours Full --------   Above Full   Capacity
  Conduit                Both Ends  Upstream  Dnstream   Normal Flow   Limited
  ----------------------------------------------------------------------------
  WS02006229WS02006228        3.57      3.67      3.57      4.97         3.57
  WS02006256WS02006235        6.31      6.31      6.93      4.01         0.01
  WS02006253WS02006251        1.29      1.29      1.34      0.01         0.01
  WS02006252WS02006251        1.40      1.40      2.24      2.00         0.01
  WS02006251WS02006249        1.29      1.30      1.33      1.29         0.96
  WS02006249WS02006248        1.28      1.28      1.33      3.98         0.01
  WS02006248WS02006247        1.31      1.31      1.47      0.01         0.01
  WS02006247WS02006245        1.43      1.52      1.43      4.43         1.43
  WS02006245WS02006243        1.47      1.49      1.57      0.45         0.20
  WS02006243WS02006242        1.66      1.66      2.36      0.01         0.01
  WS02006242WS02006240        2.14      2.14      2.62      2.16         0.01
  WS02006240WS02006239        2.18      2.21      2.31      1.42         0.96
  WS02006239WS02006238        2.51      2.56      2.60      1.48         1.06
  WS02006238WS02006235        2.55      2.55      2.78      0.01         0.01
  WS02006235WS02006234        2.20      2.20      2.50      6.18         0.01
  WS02006234WS02006232        2.35      2.35      2.85      1.01         1.00
  WS02006232WS02006231        1.13      1.13      2.85      1.07         0.01
  WS02006231WS02006230        0.94      0.94      1.16      6.33         0.01
  WS02006230WS02006229        4.37      4.70      4.37      6.40         4.37
  WS02006228WS02006109        3.61      4.03      3.61      5.71         3.61
  WS02006112WS02006115        0.01      0.01      1.21      0.01         0.01
  WS02006111WS02006112        0.01      0.01      5.21      0.01         0.01
  WS02006110WS02006113        0.01      0.01      3.85      0.01         0.01
  WS02006109WS02006110        1.00      1.00      4.03      1.00         0.01
  WS02004405WS02004406        0.01      0.01      0.01      1.05         0.01
  WS02004404WS02004405        0.01      0.01      0.01      6.47         0.01
  WS02003072WS02003073        0.01      0.01      0.01      6.29         0.01
  YS02001759YS02001757        6.15      6.15      6.24      0.01         0.01
  YS02001762YS02001759        6.13      6.13      6.15      0.01         0.01
  YS02001765YS02001762        6.10      6.10      6.13      0.01         0.01
  YS02001770YS02001767        6.07      6.07      6.07      0.01         0.71
  YS02001774YS02001770        6.05      6.05      6.13      0.01         0.01
  YS02001779YS02001774        5.89      5.89      6.13      0.01         0.01
  YS02001649YS02001757        6.14      6.14      6.24      0.01         0.01
  YS02001767YS02001765        6.07      6.07      6.10      0.01         0.01
  YS02006561YS02001783        0.01      0.01      0.16      0.01         0.01
  YS02001783YS02001784        0.15      0.16      0.26      0.01         0.01
  YS02001784YS02001785        0.16      0.26      0.16      1.62         0.15
  YS02001788YS02001790        0.10      0.10      0.81      0.01         0.01
  YS02001790YS02001791        0.81      0.81      0.88      0.01         0.01
  YS02001791YS02001793        0.88      0.88      1.35      0.01         0.01
  YS02001910YS02001907        0.01      0.01      0.94      0.01         0.01
  YS02001786YS02001788        0.10      0.16      0.10      1.19         0.09
  YS02001629YS02163301        6.05      6.05      6.07      0.01         0.01
  YS02001619YS02001622        5.58      5.58      5.65      0.01         0.01
  YS02001622YS02001625        5.64      5.64      6.00      0.01         0.01
  YS02001625YS02001629        5.60      5.60      6.00      0.01         0.01
  YS02163301YS02001633        6.07      6.07      6.11      0.01         0.01
  YS02163601YS02164001        6.10      6.10      6.14      0.01         0.01
  YS02164001YS02001641        6.10      6.10      6.11      0.01         0.02
  YS02001641YS02001644        6.11      6.11      6.11      0.03         0.90
  YS02001647YS02001649        5.98      5.98      6.14      0.01         0.01
  YS02006553YS02006556        0.01      0.01      1.07      0.01         0.01
  YS02006556YS02006558        0.17      0.17      1.16      0.01         0.01
  YS02001907YS02006553        1.67      1.67      1.89      0.01         0.01
  YS02006558YS02006561        0.01      0.01      0.01      1.48         0.01
  YS02001633YS02163601        6.08      6.08      6.14      0.01         0.01
  YS02001644YS02001647        5.98      5.98      6.11      0.01         0.01
  YS02001745YS02001748        0.01      0.01      4.19      0.01         0.01
  YS02001748YS02001751        4.82      4.82      5.62      0.01         0.01
  YS02001751YS02001754        5.62      5.62      5.91      0.01         0.01
  YS02001754YS02001757        5.97      5.97      6.24      0.01         0.01
  YS02001904YS02001907        0.01      0.01      1.10      0.01         0.01
  YS02001652YS02001649        6.00      6.00      6.14      0.01         0.01
  YS02001655YS02001652        5.64      5.64      5.97      0.01         0.01
  YS02001658YS02001655        4.28      4.28      5.64      0.01         0.01
  YS02001661YS02001658        0.14      0.14      4.28      0.01         0.01
  YS02001664YS02001661        0.01      0.01      0.75      0.01         0.01
  HS02004881HS02006253        0.01      0.01      0.90      0.01         0.01
  YS02001793JiankangQianchi        1.22      1.22      3.83      0.01         0.01
  YS02001757CaochengTiaoxuchi        5.36      5.36      6.24      0.01         0.01
  
  
  ***************
  Pumping Summary
  ***************
  
  ---------------------------------------------------------------------------------------------------------
                                                  Min       Avg       Max     Total     Power    % Time Off
                        Percent   Number of      Flow      Flow      Flow    Volume     Usage    Pump Curve
  Pump                 Utilized   Start-Ups       LPS       LPS       LPS  10^6 ltr     Kw-hr    Low   High
  ---------------------------------------------------------------------------------------------------------
  CC-Pump-1               64.58           2      0.00    174.56    200.00     3.180      3.83    0.0    0.0
  CC-Pump-2               35.42           3      0.00    102.03    200.00     1.320      2.02    0.0    0.0
  JK-Pump-1               58.33           5      0.00    217.87    300.00     3.193     53.17    0.0    0.0
  JK-Pump-2               45.83           6      0.00    333.94    683.00     3.913     70.93    0.0   94.0
  XR-Pump-1               97.91           2      0.00     94.34     95.00     2.622     41.18    0.0    0.0
  XR-Pump-2               97.91           2      0.00     94.34     95.00     2.622     41.18    0.0    0.0
  XR-Pump-3               97.91           2      0.00     93.92     95.00     2.565     39.87    0.0    0.0
  XR-Pump-4               97.91           2      0.00     93.92     95.00     2.565     39.87    0.0    0.0
  
  
  ***************************
  Link Pollutant Load Summary
  ***************************
  
  ------------------------------------------------------------------------------------------
                                 COD            SS            TN            TP         NH4-N
  Link                            kg            kg            kg            kg            kg
  ------------------------------------------------------------------------------------------
  WS02003066WSF200           639.752      1128.572        18.666         1.695        10.033
  WS02006287WS02006284       175.700       312.043         7.674         0.828         4.433
  WS02006284WS02006280       176.236       312.902         7.724         0.834         4.465
  WS02006280WS02006229       176.211       312.858         7.722         0.834         4.463
  WS02006229WS02006228       647.663      1142.361        18.398         1.644         9.824
  WS02006256WS02006235       147.118       259.227         3.514         0.284         1.810
  WS02006253WS02006251        31.242        57.903         0.760         0.060         0.385
  WS02006252WS02006251       321.167       561.112         7.007         0.509         3.462
  WS02006251WS02006249       346.868       609.319         7.672         0.564         3.806
  WS02006249WS02006248       331.857       583.227         7.338         0.540         3.639
  WS02006248WS02006247       331.663       582.924         7.335         0.539         3.638
  WS02006247WS02006245       331.234       582.193         7.324         0.539         3.633
  WS02006245WS02006243       330.735       581.398         7.309         0.537         3.625
  WS02006243WS02006242       330.791       581.562         7.311         0.538         3.626
  WS02006242WS02006240       330.208       580.590         7.299         0.537         3.620
  WS02006240WS02006239       330.282       580.741         7.308         0.538         3.626
  WS02006239WS02006238       331.515       582.776         7.362         0.544         3.657
  WS02006238WS02006235       331.885       583.222         7.387         0.547         3.672
  WS02006235WS02006234       475.370       836.230        10.774         0.818         5.411
  WS02006234WS02006232       474.836       835.304        10.768         0.818         5.409
  WS02006232WS02006231       474.188       834.188        10.751         0.816         5.400
  WS02006231WS02006230       473.642       833.227        10.741         0.816         5.396
  WS02006230WS02006229       472.469       831.234        10.710         0.813         5.380
  WS02006228WS02006109       646.696      1140.745        18.367         1.641         9.807
  WS02006116WS02004401       653.474      1152.002        19.059         1.730        10.242
  WS02006115WS02006116       654.746      1154.153        19.100         1.734        10.264
  WS02006113WS02006111       652.593      1149.907        19.105         1.736        10.275
  WS02006112WS02006115       656.030      1156.356        19.146         1.738        10.290
  WS02006111WS02006112       652.104      1149.072        19.092         1.735        10.268
  WS02006110WS02006113       653.189      1150.934        19.127         1.738        10.288
  WS02006109WS02006110       654.423      1153.044        19.174         1.743        10.314
  WS02004411WS02004412       643.574      1135.096        18.805         1.709        10.110
  WS02004401WS02004402       652.093      1149.645        19.010         1.725        10.214
  WS02004413WS02003067       640.492      1129.820        18.687         1.697        10.044
  WS02004412WS02004413       642.168      1132.698        18.760         1.705        10.086
  WS02004410WS02004411       644.662      1136.941        18.839         1.712        10.129
  WS02004409WS02004410       645.734      1138.766        18.875         1.716        10.149
  WS02004407WS02004409       646.592      1140.211        18.901         1.718        10.163
  WS02004406WS02004407       646.815      1140.566        18.904         1.718        10.164
  WS02004405WS02004406       648.732      1143.801        18.991         1.728        10.215
  WS02004404WS02004405       649.952      1145.884        19.005         1.728        10.219
  WS02004403WS02004404       649.623      1145.443        18.924         1.717        10.166
  WS02004402WS02004403       650.818      1147.484        18.967         1.721        10.191
  WS02004139WS02001211      1525.967      2470.851       135.355        16.721        84.012
  WS02004138WS02004139      1523.921      2467.577       135.159        16.697        83.889
  WS02003067WS02003066       639.913      1128.849        18.672         1.696        10.036
  WS02001213WS02003059      1577.564      2553.404       140.309        17.341        87.108
  WS02001212WS02001213      1577.577      2553.427       140.311        17.341        87.109
  WS02001211WS02001212      1578.199      2554.422       140.370        17.348        87.146
  WS02003072WS02003073      2333.191      3867.113       170.265        20.450       104.203
  WS02003069WS02003072      2336.419      3872.361       170.534        20.483       104.370
  WS02003060WS02003069      2335.700      3871.295       170.413        20.467       104.293
  WS02003059WS02003060      1579.713      2556.842       140.516        17.366        87.238
  HS02004901HS02004770         5.608        10.257         0.108         0.008         0.050
  HS02004876HS02004881        21.707        40.660         0.540         0.042         0.273
  HS02004870HS02004876        16.454        30.706         0.447         0.036         0.230
  HS02004842HS02004848         3.325         6.020         0.072         0.005         0.033
  HS02004837HS02004842         7.962        13.395         0.542         0.064         0.328
  HS02004830HS02004837        57.165        95.095         4.472         0.545         2.757
  HS02004824HS02004830        57.940        96.336         4.546         0.554         2.804
  HS02004817HS02004824        70.621       120.405         4.818         0.571         2.936
  HS02004770HS02004777        21.634        40.016         0.464         0.031         0.212
  HS02004799HS02004480        78.899       140.994         2.693         0.265         1.473
  HS02004792HS02004799        71.985       127.502         2.612         0.264         1.443
  HS02004788HS02004792        43.811        77.538         1.921         0.204         1.095
  HS02004785HS02004788        23.072        42.308         0.614         0.050         0.306
  HS02004777HS02004785        22.382        41.201         0.551         0.042         0.267
  HS02004480HS02004478        98.332       177.705         2.983         0.283         1.603
  HS02004479HS02004480        23.035        42.494         0.603         0.057         0.324
  HS02004862HS02004870        12.215        22.366         0.363         0.032         0.190
  HS02004848HS02004852         4.178         7.604         0.090         0.006         0.041
  HS02004856HS02004862         7.682        14.407         0.158         0.010         0.074
  HS02004852HS02004856         4.189         7.625         0.090         0.006         0.041
  HS02004802HS02004478        78.295       135.853         4.757         0.552         2.870
  HS02004478WS02006287       175.894       312.359         7.692         0.830         4.444
  HS02004817HS02004807        69.286       118.282         4.683         0.554         2.852
  HS02004807HS02004802        78.487       136.151         4.789         0.556         2.891
  YS02001759YS02001757       248.303       437.511         5.179         0.357         2.544
  YS02001762YS02001759       120.459       213.475         2.733         0.193         1.367
  YS02001765YS02001762       120.259       213.275         2.753         0.195         1.380
  YS02001770YS02001767       118.088       209.919         2.469         0.158         1.198
  YS02001774YS02001770        34.690        63.100         0.710         0.046         0.344
  YS02001779YS02001774        33.671        61.001         0.810         0.062         0.415
  YS02001649YS02001757       269.906       462.301         5.567         0.389         2.670
  YS02001767YS02001765       120.495       213.727         2.775         0.198         1.393
  YS02006561YS02001783       555.588       975.140        12.832         1.004         6.535
  YS02001783YS02001784       555.531       975.062        12.828         1.004         6.533
  YS02001784YS02001785       563.046       987.101        13.556         1.095         6.989
  YS02001788YS02001790       563.731       988.214        13.632         1.105         7.036
  YS02001790YS02001791       564.752       989.858        13.733         1.118         7.100
  YS02001791YS02001793       564.647       989.712        13.725         1.117         7.095
  YS02001910YS02001907       187.893       324.789         5.518         0.469         2.951
  YS02001786YS02001788       563.294       987.508        13.586         1.099         7.007
  YS02001915YS02001910       187.928       324.816         5.480         0.463         2.925
  YS02001918YS02001915        91.706       151.578         3.417         0.348         1.940
  YS02001923YS02001920        71.367       119.090         1.429         0.099         0.697
  YS02001926YS02001923        71.017       118.536         1.391         0.094         0.672
  YS02001929YS02001926        70.771       118.131         1.358         0.090         0.652
  YS02001920YS02001918        91.701       151.627         3.389         0.344         1.922
  YS02001629YS02163301        76.366       131.270         1.634         0.104         0.758
  YS02001619YS02001622        79.483       136.116         1.709         0.108         0.792
  YS02001622YS02001625        78.476       134.569         1.684         0.107         0.781
  YS02001625YS02001629        77.314       132.829         1.655         0.105         0.768
  YS02163301YS02001633        76.392       131.327         1.633         0.104         0.759
  YS02163601YS02164001       214.009       365.976         4.382         0.306         2.096
  YS02164001YS02001641       213.687       365.447         4.366         0.304         2.087
  YS02001641YS02001644       214.147       366.183         4.368         0.304         2.087
  YS02001647YS02001649       244.112       417.805         4.967         0.345         2.382
  YS02006553YS02006556       401.380       702.263         9.547         0.770         4.924
  YS02006556YS02006558       401.454       702.394         9.513         0.765         4.901
  YSB6556YSB1171              12.960        24.065         0.286         0.025         0.148
  YS02001907YS02006553       401.403       702.319         9.570         0.773         4.939
  YS02006558YS02006561       555.660       975.265        12.833         1.004         6.536
  YS02001633YS02163601       214.592       366.848         4.359         0.302         2.078
  YS02001644YS02001647       248.594       425.487         5.042         0.350         2.417
  YS02001745YS02001748       116.780       204.712         2.863         0.207         1.453
  YS02001748YS02001751       116.432       203.740         3.022         0.230         1.560
  YS02001751YS02001754       115.746       202.624         3.032         0.233         1.570
  YS02001754YS02001757       116.639       204.023         3.199         0.256         1.678
  YS02001882YS02001884         2.032         3.426         0.042         0.003         0.021
  YS02001884YS02001887         5.138         8.847         0.103         0.008         0.051
  YS02001890YS02001895       214.706       379.318         4.079         0.307         2.002
  YS02001895YS02001898       214.539       379.073         4.073         0.306         1.999
  YS02001898YS02001901       214.426       378.910         4.069         0.306         1.997
  YS02001901YS02001904       214.333       378.793         4.078         0.307         2.003
  YS02001904YS02001907       214.674       379.366         4.131         0.314         2.037
  YS02001887YS02001890       215.517       380.567         4.133         0.313         2.035
  YS02001652YS02001649        67.274       117.020         1.463         0.106         0.688
  YS02001655YS02001652        67.950       118.100         1.481         0.107         0.698
  YS02001658YS02001655        67.468       117.294         1.394         0.096         0.641
  YS02001661YS02001658        73.636       128.151         1.521         0.104         0.699
  YS02001664YS02001661        95.027       163.797         1.987         0.136         0.912
  YSB1154YSB6556              12.540        23.391         0.239         0.019         0.119
  YSB1174YSB1171               8.562        15.999         0.185         0.016         0.095
  YSB1171HS02004479           22.973        42.386         0.607         0.058         0.328
  HS02004881HS02006253        24.428        45.924         0.583         0.044         0.292
  YS02001793JiankangQianchi       565.372       990.993        13.745         1.118         7.105
  YS02001757CaochengTiaoxuchi       501.092       867.918        11.031         0.799         5.450
  WSF200WS02003060           639.543      1128.207        18.675         1.697        10.039
  1                         2347.409      3889.763       171.731        20.635       105.124
  CC-Pump-1                  227.982       398.457         4.976         0.362         2.459
  CC-Pump-2                   93.203       162.683         2.031         0.147         1.003
  JK-Pump-1                  169.129       298.528         3.937         0.312         2.013
  JK-Pump-2                  207.683       367.519         4.864         0.389         2.493
  XR-Pump-1                  387.416       627.192        34.408         4.251        21.359
  XR-Pump-2                  387.416       627.192        34.408         4.251        21.359
  XR-Pump-3                  374.670       606.799        33.184         4.098        20.594
  XR-Pump-4                  374.670       606.799        33.184         4.098        20.594
  

  Analysis begun on:  Sat Jul 10 16:32:24 2021
  Analysis ended on:  Sat Jul 10 16:32:28 2021
  Total elapsed time: 00:00:04