
  EPA STORM WATER MANAGEMENT MODEL - VERSION 5.1 (Build 5.3.0.dev0)
  --------------------------------------------------------------

  WARNING 04: minimum elevation drop used for Conduit WS02004404WS02004405
  WARNING 03: negative offset ignored for Link YS02001904YS02001907
  
  *********************************************************
  NOTE: The summary statistics displayed in this report are
  based on results found at every computational time step,  
  not just on results from each reporting time step.
  *********************************************************
  
  ****************
  Analysis Options
  ****************
  Flow Units ............... LPS
  Process Models:
    Rainfall/Runoff ........ YES
    RDII ................... NO
    Snowmelt ............... NO
    Groundwater ............ NO
    Flow Routing ........... YES
    Ponding Allowed ........ NO
    Water Quality .......... YES
  Infiltration Method ...... HORTON
  Flow Routing Method ...... DYNWAVE
  Surcharge Method ......... EXTRAN
  Starting Date ............ 08/28/2015 08:00:00
  Ending Date .............. 08/28/2015 16:00:00
  Antecedent Dry Days ...... 8.0
  Report Time Step ......... 00:01:00
  Wet Time Step ............ 00:01:00
  Dry Time Step ............ 00:01:00
  Routing Time Step ........ 5.00 sec
  Variable Time Step ....... YES
  Maximum Trials ........... 8
  Number of Threads ........ 4
  Head Tolerance ........... 0.001500 m
  
  
  **************************        Volume         Depth
  Runoff Quantity Continuity     hectare-m            mm
  **************************     ---------       -------
  Total Precipitation ......         2.901         6.352
  Evaporation Loss .........         0.000         0.000
  Infiltration Loss ........         0.618         1.354
  Surface Runoff ...........         1.728         3.784
  Final Storage ............         0.555         1.215
  Continuity Error (%) .....        -0.020
  
  
  **************************           COD            SS            TN            TP         NH4-N
  Runoff Quality Continuity             kg            kg            kg            kg            kg
  **************************    ----------    ----------    ----------    ----------    ----------
  Initial Buildup ..........     41378.656     70582.865      1804.177       168.684      1032.807
  Surface Buildup ..........        12.395        16.998         2.239         0.207         1.322
  Wet Deposition ...........         0.000         0.000         0.000         0.000         0.000
  Sweeping Removal .........         0.000         0.000         0.000         0.000         0.000
  Infiltration Loss ........        30.657        53.419         0.610         0.041         0.286
  BMP Removal ..............         0.000         0.000         0.000         0.000         0.000
  Surface Runoff ...........      1023.367      1738.349        20.776         1.346         9.790
  Remaining Buildup ........     40336.730     68807.591      1785.024       167.504      1024.050
  Continuity Error (%) .....         0.001         0.001         0.000         0.000         0.000
  
  
  **************************        Volume        Volume
  Flow Routing Continuity        hectare-m      10^6 ltr
  **************************     ---------     ---------
  Dry Weather Inflow .......         0.630         6.296
  Wet Weather Inflow .......         1.727        17.275
  Groundwater Inflow .......         0.000         0.000
  RDII Inflow ..............         0.000         0.000
  External Inflow ..........         0.105         1.045
  External Outflow .........         1.781        17.814
  Flooding Loss ............         0.387         3.871
  Evaporation Loss .........         0.000         0.000
  Exfiltration Loss ........         0.000         0.000
  Initial Stored Volume ....         0.076         0.761
  Final Stored Volume ......         0.494         4.945
  Continuity Error (%) .....        -4.938
  
  
  **************************           COD            SS            TN            TP         NH4-N
  Quality Routing Continuity            kg            kg            kg            kg            kg
  **************************    ----------    ----------    ----------    ----------    ----------
  Dry Weather Inflow .......      1573.993      2518.389       151.103        18.888        94.440
  Wet Weather Inflow .......      1022.977      1737.722        20.767         1.345         9.786
  Groundwater Inflow .......         0.000         0.000         0.000         0.000         0.000
  RDII Inflow ..............         0.000         0.000         0.000         0.000         0.000
  External Inflow ..........       187.321       299.713        17.983         2.248        11.239
  External Outflow .........      2119.139      3454.013       164.619        19.951       101.248
  Flooding Loss ............       199.414       337.776         4.958         0.403         2.558
  Exfiltration Loss ........         0.000         0.000         0.000         0.000         0.000
  Mass Reacted .............         0.000         0.000         0.000         0.000         0.000
  Initial Stored Mass ......         0.000         0.000         0.000         0.000         0.000
  Final Stored Mass ........       346.517       564.298        17.264         1.886        10.114
  Continuity Error (%) .....         4.282         4.384         1.586         1.073         1.338
  
  
  *************************
  Highest Continuity Errors
  *************************
  Node YS02001774 (41.60%)
  Node JK-storage (-24.56%)
  Node HS02004842 (22.13%)
  Node YS02001884 (18.78%)
  Node WS02006253 (5.59%)
  
  
  ***************************
  Time-Step Critical Elements
  ***************************
  Link WS02006252WS02006251 (64.29%)
  Link WS02006280WS02006229 (9.47%)
  Link WS02006238WS02006235 (6.67%)
  Link YS02001793JiankangQianchi (6.22%)
  Link WS02004404WS02004405 (2.58%)
  
  
  ********************************
  Highest Flow Instability Indexes
  ********************************
  Link WS02006113WS02006111 (47)
  Link YS02001779YS02001774 (33)
  Link YS02001774YS02001770 (30)
  Link WS02006111WS02006112 (26)
  Link YS02001765YS02001762 (24)
  
  
  *************************
  Routing Time Step Summary
  *************************
  Minimum Time Step           :     0.50 sec
  Average Time Step           :     1.18 sec
  Maximum Time Step           :     5.00 sec
  Percent in Steady State     :    -0.00
  Average Iterations per Step :     4.13
  Percent Not Converging      :    20.68
  
  
  ***************************
  Subcatchment Runoff Summary
  ***************************
  
  ------------------------------------------------------------------------------------------------------------------------------
                            Total      Total      Total      Total     Imperv       Perv      Total       Total     Peak  Runoff
                           Precip      Runon       Evap      Infil     Runoff     Runoff     Runoff      Runoff   Runoff   Coeff
  Subcatchment                 mm         mm         mm         mm         mm         mm         mm    10^6 ltr      LPS
  ------------------------------------------------------------------------------------------------------------------------------
  sub0                       6.35       0.00       0.00       0.44       5.86       0.00       5.86        0.00     0.78   0.923
  sub1                       6.35       0.00       0.00       0.70       5.57       0.00       5.57        0.04     5.62   0.876
  sub2                       6.35       0.00       0.00       2.35       3.92       0.00       3.92        0.04     5.42   0.618
  sub3                       6.35       0.00       0.00       2.35       3.89       0.00       3.89        0.09    12.41   0.612
  sub4                       6.35       0.00       0.00       0.70       5.43       0.00       5.43        0.11    15.14   0.854
  sub5                       6.35       0.00       0.00       0.44       5.82       0.00       5.82        0.07    10.01   0.916
  sub7                       6.35       0.00       0.00       0.57       5.72       0.00       5.72        0.02     3.02   0.901
  sub8                       6.35       0.00       0.00       0.57       5.71       0.00       5.71        0.04     5.65   0.899
  sub9                       6.35       0.00       0.00       0.57       5.71       0.00       5.71        0.03     4.24   0.899
  sub10                      6.35       0.00       0.00       0.51       5.76       0.00       5.76        0.06     9.71   0.907
  sub11                      6.35       0.00       0.00       0.51       5.78       0.00       5.78        0.07    10.43   0.909
  sub12                      6.35       0.00       0.00       0.83       5.48       0.00       5.48        0.05     7.62   0.863
  sub14                      6.35       0.00       0.00       0.57       5.71       0.00       5.71        0.05     8.38   0.898
  sub15                      6.35       0.00       0.00       1.91       4.39       0.00       4.39        0.08    11.59   0.691
  sub16                      6.35       0.00       0.00       2.10       4.22       0.00       4.22        0.04     6.98   0.664
  sub17                      6.35       0.00       0.00       2.03       4.28       0.00       4.28        0.04     5.78   0.673
  sub22                      6.35       0.00       0.00       2.73       3.58       0.00       3.58        0.23    35.24   0.564
  sub23                      6.35       0.00       0.00       2.35       3.96       0.00       3.96        0.19    29.51   0.623
  sub60                      6.35       0.00       0.00       0.76       4.17       0.00       4.17        1.27   118.99   0.657
  sub61                      6.35       0.00       0.00       1.08       4.36       0.00       4.36        1.34   142.56   0.687
  sub62                      6.35       0.00       0.00       0.51       4.71       0.00       4.71        1.45   148.28   0.741
  sub63                      6.35       0.00       0.00       1.84       3.85       0.00       3.85        1.17   129.12   0.606
  sub64                      6.35       0.00       0.00       0.95       4.00       0.00       4.00        1.21   113.25   0.629
  sub65                      6.35       0.00       0.00       0.83       4.05       0.00       4.05        1.25   115.13   0.638
  sub66                      6.35       0.00       0.00       1.84       3.46       0.00       3.46        1.06   102.81   0.545
  sub67                      6.35       0.00       0.00       0.51       5.08       0.00       5.08        1.57   177.67   0.799
  sub68                      6.35       0.00       0.00       0.89       4.61       0.00       4.61        1.42   154.75   0.726
  sub69                      6.35       0.00       0.00       0.95       4.89       0.00       4.89        1.14   137.55   0.769
  sub70                      6.35       4.99       0.00       3.85       6.25       0.00       6.26        1.43   135.16   0.552
  sub71                      6.35       0.00       0.00       0.51       4.54       0.00       4.54        1.07   105.24   0.715
  sub72                      6.35       0.00       0.00       0.44       3.38       0.00       3.38        0.69    52.30   0.532
  1                          6.35       6.09       0.00       1.40       6.58       1.15       7.73        1.82   134.35   0.622
  2                          6.35       0.00       0.00       3.09       1.46       0.39       1.86        0.74    85.38   0.292
  
  
  ****************************
  Subcatchment Washoff Summary
  ****************************
  
  ------------------------------------------------------------------------------------------
                                 COD            SS            TN            TP         NH4-N
  Subcatchment                    kg            kg            kg            kg            kg
  ------------------------------------------------------------------------------------------
  sub0                         0.807         1.443         0.013         0.001         0.006
  sub1                         3.441         6.298         0.065         0.004         0.031
  sub2                         2.007         3.548         0.046         0.003         0.021
  sub3                         4.937         8.646         0.110         0.007         0.050
  sub4                         8.016        14.752         0.167         0.010         0.080
  sub5                         7.865        14.203         0.139         0.010         0.067
  sub7                         1.800         3.351         0.035         0.002         0.017
  sub8                         2.764         5.256         0.057         0.003         0.027
  sub9                         2.328         4.367         0.046         0.003         0.022
  sub10                        6.544        11.976         0.121         0.008         0.058
  sub11                        6.465        11.981         0.123         0.008         0.059
  sub12                        5.291         9.606         0.096         0.007         0.046
  sub14                        4.923         9.147         0.095         0.006         0.046
  sub15                        5.731        10.136         0.115         0.008         0.053
  sub16                        3.575         6.303         0.070         0.005         0.033
  sub17                        3.261         5.693         0.062         0.005         0.029
  sub22                       16.662        28.755         0.331         0.024         0.152
  sub23                       10.430        18.730         0.240         0.015         0.108
  sub60                       67.613       114.809         1.435         0.083         0.685
  sub61                       84.047       141.975         1.630         0.106         0.781
  sub62                       89.177       153.548         1.837         0.110         0.878
  sub63                       62.469       104.075         1.347         0.091         0.614
  sub64                       80.743       131.956         1.545         0.108         0.731
  sub65                       82.892       136.085         1.599         0.109         0.759
  sub66                       48.384        79.910         1.078         0.067         0.497
  sub67                      131.258       223.843         2.390         0.169         1.150
  sub68                       94.035       160.705         1.888         0.121         0.896
  sub69                       85.909       148.619         1.671         0.112         0.792
  sub70                      134.577       233.592         2.832         0.188         1.307
  sub71                       59.416       103.200         1.309         0.071         0.623
  sub72                       40.744        65.519         0.799         0.052         0.383
  1                           74.997       131.068         1.634         0.109         0.742
  2                           10.744        17.466         0.352         0.021         0.147
  ------------------------------------------------------------------------------------------
  System                    1243.854      2120.560        25.279         1.645        11.890
  
  
  ******************
  Node Depth Summary
  ******************
  
  ---------------------------------------------------------------------------------
                                 Average  Maximum  Maximum  Time of Max    Reported
                                   Depth    Depth      HGL   Occurrence   Max Depth
  Node                 Type       Meters   Meters   Meters  days hr:min      Meters
  ---------------------------------------------------------------------------------
  WS02001211           JUNCTION     0.70     0.80     5.63     0  04:37        0.80
  WS02001212           JUNCTION     0.42     0.51     5.57     0  04:36        0.51
  WS02001213           JUNCTION     0.67     0.76     5.52     0  04:35        0.76
  WS02003069           JUNCTION     0.48     0.59     5.17     0  04:35        0.59
  WS02003072           JUNCTION     0.54     0.65     5.02     0  04:35        0.65
  WS02003073           JUNCTION     0.33     0.40     4.46     0  04:36        0.40
  WS02003060           JUNCTION     0.43     0.52     5.45     0  04:34        0.52
  WS02003066           JUNCTION     0.25     0.30     5.85     0  04:31        0.30
  WS02003059           JUNCTION     0.72     0.81     5.50     0  04:35        0.81
  WS02003067           JUNCTION     0.61     0.71     6.03     0  04:31        0.71
  WS02004401           JUNCTION     0.71     0.86     6.86     0  04:05        0.86
  WS02004402           JUNCTION     0.74     0.89     6.85     0  04:05        0.89
  WS02004403           JUNCTION     0.76     0.90     6.83     0  04:06        0.90
  WS02004404           JUNCTION     0.84     0.97     6.82     0  04:06        0.97
  WS02004406           JUNCTION     0.84     0.96     6.79     0  04:05        0.96
  WS02004409           JUNCTION     0.53     0.68     6.45     0  04:31        0.68
  WS02004410           JUNCTION     0.55     0.69     6.41     0  04:31        0.69
  WS02004411           JUNCTION     0.57     0.70     6.38     0  04:31        0.70
  WS02004412           JUNCTION     0.58     0.71     6.35     0  04:31        0.71
  WS02004413           JUNCTION     0.74     0.86     6.33     0  04:30        0.86
  WS02004405           JUNCTION     0.83     0.97     6.82     0  04:06        0.97
  WS02006109           JUNCTION     0.79     1.00     7.62     0  04:00        0.99
  WS02006110           JUNCTION     0.78     0.94     7.53     0  03:59        0.94
  WS02006111           JUNCTION     0.23     0.29     7.00     0  04:04        0.29
  WS02006112           JUNCTION     0.89     1.07     6.95     0  04:04        1.06
  WS02006113           JUNCTION     0.36     0.47     7.36     0  04:03        0.47
  WS02006115           JUNCTION     0.60     0.76     6.90     0  04:05        0.76
  WS02006116           JUNCTION     0.69     0.84     6.88     0  04:05        0.84
  WS02006230           JUNCTION     0.79     1.14     7.88     0  03:59        1.13
  WS02006231           JUNCTION     0.54     0.88     8.00     0  03:59        0.88
  WS02006232           JUNCTION     0.69     1.08     8.11     0  03:59        1.06
  WS02006234           JUNCTION     0.62     1.08     8.24     0  03:59        1.08
  WS02006235           JUNCTION     0.67     1.17     8.34     0  07:15        1.16
  WS02006238           JUNCTION     0.69     1.20     8.34     0  03:59        1.20
  WS02006240           JUNCTION     0.61     1.15     8.44     0  03:59        1.13
  WS02006242           JUNCTION     0.67     1.24     8.51     0  03:59        1.22
  WS02006243           JUNCTION     0.56     1.16     8.58     0  03:59        1.13
  WS02006245           JUNCTION     0.54     1.15     8.64     0  03:59        1.11
  WS02006247           JUNCTION     0.55     1.16     8.66     0  03:59        1.13
  WS02006248           JUNCTION     0.50     1.09     8.68     0  03:59        1.08
  WS02006249           JUNCTION     0.52     1.09     8.69     0  03:59        1.09
  WS02006239           JUNCTION     0.66     1.18     8.39     0  04:32        1.18
  WS02006251           JUNCTION     0.51     1.42     9.09     0  03:59        1.17
  WS02006252           JUNCTION     0.36     0.92     9.16     0  03:59        0.73
  WS02006253           JUNCTION     0.54     1.40     9.04     0  03:59        1.21
  WS02006256           JUNCTION     1.50     2.35     9.28     0  00:00        2.35
  WS02004138           JUNCTION     0.15     0.20     7.45     0  00:00        0.19
  WS02004139           JUNCTION     0.64     0.74     5.65     0  04:37        0.74
  WS02004407           JUNCTION     0.24     0.30     6.61     0  04:06        0.30
  WS02006228           JUNCTION     0.80     1.05     7.70     0  03:59        1.05
  WS02006229           JUNCTION     0.78     1.04     7.74     0  03:59        1.04
  WS02006280           JUNCTION     0.05     0.13     8.40     0  02:27        0.13
  WS02006284           JUNCTION     0.35     0.45     8.85     0  02:27        0.45
  WS02006287           JUNCTION     0.07     0.18     9.14     0  02:27        0.18
  WSF200               JUNCTION     0.23     0.31     5.54     0  05:57        0.31
  HS02004901           JUNCTION     0.11     0.20    10.02     0  02:25        0.20
  HS02004881           JUNCTION     0.01     0.02     9.05     0  02:26        0.02
  HS02004876           JUNCTION     0.03     0.09     9.12     0  02:25        0.09
  HS02004870           JUNCTION     0.01     0.03     9.32     0  02:26        0.03
  HS02004862           JUNCTION     0.01     0.04     9.43     0  02:27        0.04
  HS02004856           JUNCTION     0.07     0.10     9.53     0  02:26        0.10
  HS02004852           JUNCTION     0.01     0.02     9.54     0  02:27        0.02
  HS02004848           JUNCTION     0.01     0.02     9.62     0  02:25        0.02
  HS02004842           JUNCTION     0.33     0.35     9.62     0  02:25        0.35
  HS02004837           JUNCTION     0.03     0.04     9.62     0  02:25        0.04
  HS02004830           JUNCTION     0.04     0.06     9.53     0  02:26        0.06
  HS02004824           JUNCTION     0.02     0.04     9.44     0  02:27        0.04
  HS02004817           JUNCTION     0.42     0.51     9.35     0  02:27        0.51
  HS02004807           JUNCTION     0.11     0.18     9.35     0  02:27        0.18
  HS02004802           JUNCTION     0.15     0.22     9.35     0  02:27        0.22
  HS02004799           JUNCTION     0.09     0.22     9.43     0  02:25        0.22
  HS02004792           JUNCTION     0.02     0.08     9.60     0  02:25        0.08
  HS02004788           JUNCTION     0.02     0.06     9.96     0  02:26        0.06
  HS02004785           JUNCTION     0.03     0.11    10.01     0  02:26        0.11
  HS02004777           JUNCTION     0.13     0.22    10.02     0  02:25        0.22
  HS02004770           JUNCTION     0.10     0.19    10.02     0  02:25        0.19
  HS02004480           JUNCTION     0.06     0.17     9.41     0  02:26        0.17
  HS02004479           JUNCTION     0.10     0.20     9.41     0  02:26        0.20
  HS02004478           JUNCTION     0.05     0.11     9.33     0  02:27        0.11
  YS02001745           JUNCTION     0.64     0.85     8.36     0  03:57        0.84
  YS02001748           JUNCTION     1.04     1.29     8.37     0  05:19        1.28
  YS02001751           JUNCTION     1.22     1.49     8.37     0  03:57        1.48
  YS02001754           JUNCTION     1.47     1.77     8.38     0  03:57        1.76
  YS02001762           JUNCTION     1.67     1.99     8.39     0  04:04        1.97
  YS02001765           JUNCTION     1.63     1.95     8.40     0  04:04        1.93
  YS02001767           JUNCTION     1.59     1.91     8.40     0  03:36        1.89
  YS02001770           JUNCTION     1.58     1.91     8.40     0  03:36        1.88
  YS02001774           JUNCTION     1.65     1.97     8.39     0  03:36        1.95
  YS02001779           JUNCTION     1.40     1.68     8.37     0  03:32        1.68
  YS02001882           JUNCTION     0.31     0.56     7.28     0  03:02        0.56
  YS02001884           JUNCTION     0.40     0.66     7.28     0  03:03        0.66
  YS02001759           JUNCTION     1.71     2.02     8.39     0  04:04        2.01
  YS02001887           JUNCTION     0.48     0.74     7.28     0  03:03        0.74
  YS02001890           JUNCTION     0.51     0.77     7.28     0  03:02        0.77
  YS02001898           JUNCTION     0.28     0.53     7.26     0  03:03        0.53
  YS02001901           JUNCTION     0.40     0.65     7.26     0  03:02        0.65
  YS02001904           JUNCTION     0.38     0.63     7.26     0  03:02        0.63
  YS02001907           JUNCTION     0.71     0.97     7.26     0  03:02        0.97
  YS02001910           JUNCTION     0.50     0.75     7.26     0  03:02        0.75
  YS02001915           JUNCTION     0.30     0.54     7.26     0  03:02        0.54
  YS02001918           JUNCTION     0.09     0.19     7.26     0  03:03        0.19
  YS02001619           JUNCTION     1.18     1.61     8.54     0  03:05        1.46
  YS02001629           JUNCTION     1.53     1.85     8.40     0  03:30        1.84
  YS02001641           JUNCTION     1.64     1.95     8.38     0  03:30        1.93
  YS02001644           JUNCTION     1.65     1.92     8.35     0  03:29        1.92
  YS02001652           JUNCTION     1.49     1.93     8.53     0  03:05        1.80
  YS02001655           JUNCTION     1.25     2.02     8.87     0  03:05        1.57
  YS02001920           JUNCTION     0.19     0.27     7.28     0  03:03        0.27
  YS02001923           JUNCTION     0.08     0.11     7.37     0  03:02        0.11
  YS02001926           JUNCTION     0.16     0.21     7.66     0  03:02        0.21
  YS02001929           JUNCTION     0.08     0.11     7.80     0  03:01        0.11
  YS02001658           JUNCTION     0.98     2.07     9.21     0  03:05        1.29
  YS02001661           JUNCTION     0.75     1.07     8.47     0  03:57        1.05
  YS02001664           JUNCTION     0.30     0.55     8.47     0  03:56        0.54
  YS02001622           JUNCTION     1.20     1.51     8.42     0  03:38        1.49
  YS02001633           JUNCTION     1.63     1.96     8.42     0  03:38        1.93
  YS02001649           JUNCTION     1.68     2.00     8.39     0  03:51        1.99
  YS02001757           JUNCTION     1.81     2.12     8.38     0  03:57        2.11
  YS02001895           JUNCTION     0.28     0.52     7.27     0  03:02        0.52
  YS02001625           JUNCTION     1.49     1.78     8.38     0  03:29        1.78
  YS02163301           JUNCTION     1.57     1.90     8.41     0  03:38        1.87
  YS02163601           JUNCTION     1.68     2.01     8.41     0  03:30        1.98
  YS02164001           JUNCTION     1.62     1.95     8.40     0  03:30        1.91
  YS02001647           JUNCTION     1.47     1.76     8.37     0  03:58        1.76
  YSB1154              JUNCTION     0.24     0.35     9.41     0  02:26        0.35
  YSB6556              JUNCTION     0.13     0.24     9.41     0  02:26        0.24
  YSB1174              JUNCTION     0.19     0.30     9.41     0  02:26        0.30
  YSB1171              JUNCTION     0.39     0.50     9.41     0  02:26        0.50
  YS02006553           JUNCTION     0.72     0.97     7.26     0  03:02        0.97
  YS02006561           JUNCTION     0.15     0.29     6.95     0  03:05        0.29
  YS02006556           JUNCTION     0.69     0.94     7.25     0  03:04        0.94
  YS02006558           JUNCTION     0.73     0.99     7.26     0  03:05        0.98
  YS02001783           JUNCTION     0.28     0.75     6.89     0  02:50        0.73
  YS02001784           JUNCTION     0.32     0.84     6.91     0  02:51        0.83
  YS02001786           JUNCTION     0.28     0.79     6.82     0  02:51        0.78
  YS02001788           JUNCTION     0.22     0.88     6.85     0  02:50        0.77
  YS02001790           JUNCTION     0.30     1.96     7.60     0  03:45        1.05
  YS02001791           JUNCTION     0.26     2.09     7.56     0  03:44        1.17
  YS02001793           JUNCTION     0.34     2.05     6.88     0  03:44        1.79
  WSC                  OUTFALL      0.33     0.40     1.07     0  04:36        0.40
  JK-storage           STORAGE      1.93     5.80     6.60     0  02:49        5.80
  CC-storage           STORAGE      1.08     1.37     8.37     0  05:23        1.37
  XR-storage           STORAGE      2.91     6.69     4.69     0  06:46        6.69
  
  
  *******************
  Node Inflow Summary
  *******************
  
  -------------------------------------------------------------------------------------------------
                                  Maximum  Maximum                  Lateral       Total        Flow
                                  Lateral    Total  Time of Max      Inflow      Inflow     Balance
                                   Inflow   Inflow   Occurrence      Volume      Volume       Error
  Node                 Type           LPS      LPS  days hr:min    10^6 ltr    10^6 ltr     Percent
  -------------------------------------------------------------------------------------------------
  WS02001211           JUNCTION      7.35   389.18     0  04:47       0.212        8.83       0.472
  WS02001212           JUNCTION      0.00   390.87     0  04:47           0        8.79       0.288
  WS02001213           JUNCTION      0.00   392.38     0  04:47           0        8.77       0.351
  WS02003069           JUNCTION      0.32   954.77     0  04:34     0.00922        17.9       0.234
  WS02003072           JUNCTION      0.00   954.77     0  04:35           0        17.9       0.271
  WS02003073           JUNCTION      1.82   956.59     0  04:35      0.0524        17.9       0.318
  WS02003060           JUNCTION     16.53   954.45     0  04:34       0.476        17.9       0.219
  WS02003066           JUNCTION      0.00   550.65     0  04:31           0        8.78       0.068
  WS02003059           JUNCTION      0.00   394.70     0  04:48           0        8.74       0.490
  WS02003067           JUNCTION      0.00   550.64     0  04:31           0        8.79       0.131
  WS02004401           JUNCTION      0.00   555.24     0  04:04           0        9.09       0.298
  WS02004402           JUNCTION      0.00   554.16     0  04:05           0        9.06       0.273
  WS02004403           JUNCTION      0.00   553.64     0  04:05           0        9.03       0.243
  WS02004404           JUNCTION      0.16   553.26     0  04:05     0.00467        9.02       0.176
  WS02004406           JUNCTION      0.00   553.52     0  04:06           0        8.98       0.430
  WS02004409           JUNCTION      0.00   552.90     0  04:06           0        8.93       0.263
  WS02004410           JUNCTION      0.00   550.90     0  04:07           0        8.91       0.286
  WS02004411           JUNCTION      0.00   550.70     0  04:30           0        8.88       0.286
  WS02004412           JUNCTION      0.00   550.67     0  04:30           0        8.86       0.297
  WS02004413           JUNCTION      0.00   550.66     0  04:30           0        8.83       0.422
  WS02004405           JUNCTION      0.04   553.24     0  04:05      0.0011           9       0.260
  WS02006109           JUNCTION      1.23   558.88     0  04:00      0.0354         9.2       0.228
  WS02006110           JUNCTION      0.00   559.08     0  04:00           0        9.18       0.250
  WS02006111           JUNCTION      0.00   580.38     0  04:04           0        9.14       0.070
  WS02006112           JUNCTION      5.78   563.71     0  04:04      0.0367        9.17       0.385
  WS02006113           JUNCTION      0.00   559.14     0  04:00           0        9.16       0.151
  WS02006115           JUNCTION      0.00   566.99     0  04:04           0        9.14       0.310
  WS02006116           JUNCTION      0.00   556.88     0  04:04           0        9.11       0.265
  WS02006230           JUNCTION     10.28   533.71     0  07:14       0.296        8.02       0.210
  WS02006231           JUNCTION      0.00   523.18     0  07:14           0        7.74       0.242
  WS02006232           JUNCTION      0.00   523.22     0  07:14           0        7.76       0.236
  WS02006234           JUNCTION      0.00   523.95     0  07:14           0        7.77       0.149
  WS02006235           JUNCTION      0.00   523.62     0  07:14           0        7.87       0.153
  WS02006238           JUNCTION      0.00   418.49     0  04:40           0        4.95       0.180
  WS02006240           JUNCTION      0.00   417.49     0  04:40           0         4.9       0.340
  WS02006242           JUNCTION      0.00   417.32     0  04:40           0        4.88       0.376
  WS02006243           JUNCTION      0.00   417.02     0  04:40           0        4.87       0.246
  WS02006245           JUNCTION      0.00   416.72     0  04:40           0        4.87       0.255
  WS02006247           JUNCTION      0.00   416.15     0  04:40           0        4.88       0.230
  WS02006248           JUNCTION      0.00   416.14     0  04:40           0        4.89       0.200
  WS02006249           JUNCTION      0.00   428.58     0  03:59           0        5.09       0.297
  WS02006239           JUNCTION      0.00   417.89     0  04:40           0        4.93       0.244
  WS02006251           JUNCTION      0.08   411.67     0  07:14     0.00222        5.17       0.365
  WS02006252           JUNCTION      0.00   400.00     0  03:30           0        4.92       0.012
  WS02006253           JUNCTION      0.78   118.40     0  07:12     0.00475       0.266       5.923
  WS02006256           JUNCTION      0.00   983.00     0  03:00           0        5.96       0.006
  WS02004138           JUNCTION      0.00   380.00     0  00:00           0        8.66       0.067
  WS02004139           JUNCTION      0.32   395.85     0  00:00     0.00924        8.67       0.542
  WS02004407           JUNCTION      0.00   553.02     0  04:06           0        8.94       0.116
  WS02006228           JUNCTION      0.00   558.29     0  04:00           0        9.18       0.181
  WS02006229           JUNCTION      0.00   554.90     0  04:00           0         9.2       0.170
  WS02006280           JUNCTION      0.00   157.44     0  02:27           0        1.19       0.006
  WS02006284           JUNCTION      0.10   157.44     0  02:27     0.00275        1.19       0.077
  WS02006287           JUNCTION      0.00   157.35     0  02:27           0        1.19       0.058
  WSF200               JUNCTION      0.00   550.65     0  04:31           0        8.78       0.074
  HS02004901           JUNCTION      6.98     6.98     0  02:23      0.0441      0.0444       4.119
  HS02004881           JUNCTION      3.02    30.59     0  02:26      0.0193       0.202       0.082
  HS02004876           JUNCTION      5.62    27.61     0  02:25       0.037       0.183       0.287
  HS02004870           JUNCTION      5.65    22.05     0  02:25      0.0365       0.146       0.073
  HS02004862           JUNCTION      5.62    16.51     0  02:26      0.0423        0.11       0.151
  HS02004856           JUNCTION      4.24    10.94     0  02:25      0.0274      0.0692       2.128
  HS02004852           JUNCTION      0.00     6.79     0  02:25           0      0.0418       0.121
  HS02004848           JUNCTION     12.41    12.41     0  02:25      0.0875      0.0875       0.049
  HS02004842           JUNCTION      0.00     5.63     0  02:36           0      0.0588      28.416
  HS02004837           JUNCTION     16.06    21.60     0  02:25       0.246       0.292       0.279
  HS02004830           JUNCTION      0.15    21.74     0  02:26     0.00432       0.283       0.438
  HS02004824           JUNCTION     15.19    36.93     0  02:26       0.115       0.396       0.136
  HS02004817           JUNCTION      0.60    37.52     0  02:27      0.0173       0.413       4.207
  HS02004807           JUNCTION     10.43    47.64     0  02:26      0.0671       0.464       0.946
  HS02004802           JUNCTION      0.00    47.64     0  02:28           0       0.462       0.862
  HS02004799           JUNCTION      8.38    92.69     0  02:25      0.0543       0.639       0.442
  HS02004792           JUNCTION     35.52    84.38     0  02:24       0.234       0.585       0.070
  HS02004788           JUNCTION     13.26    49.21     0  02:25       0.124       0.352       0.111
  HS02004785           JUNCTION      0.15    36.14     0  02:25     0.00432        0.23       0.209
  HS02004777           JUNCTION      0.03    36.15     0  02:24    0.000864        0.23       2.307
  HS02004770           JUNCTION     29.51    36.34     0  02:23       0.189       0.231       1.351
  HS02004480           JUNCTION      0.00   109.85     0  02:26           0       0.749       0.129
  HS02004479           JUNCTION      0.00    17.35     0  02:27           0       0.122       0.600
  HS02004478           JUNCTION      0.00   157.35     0  02:26           0         1.2       0.030
  YS02001745           JUNCTION    119.00   215.78     0  03:08        1.26        1.27       0.430
  YS02001748           JUNCTION      0.04   314.03     0  03:07      0.0013        1.27       1.476
  YS02001751           JUNCTION      0.01   245.43     0  02:55    0.000317        1.24       1.838
  YS02001754           JUNCTION      0.26   179.94     0  02:53     0.00749        1.23       2.035
  YS02001762           JUNCTION      0.00   167.10     0  03:10           0        1.37       1.548
  YS02001765           JUNCTION      0.00   163.36     0  02:59           0        1.37       1.800
  YS02001767           JUNCTION      0.54   161.06     0  03:00      0.0154        1.39       2.638
  YS02001770           JUNCTION    148.44   154.92     0  03:00        1.45        1.46       2.191
  YS02001774           JUNCTION      0.00    32.21     0  01:48           0      0.0608      71.221
  YS02001779           JUNCTION      0.01    19.83     0  03:58    0.000144      0.0256     147.638
  YS02001882           JUNCTION      0.00     2.89     0  01:15           0     0.00703      34.900
  YS02001884           JUNCTION      0.00     7.49     0  01:37           0      0.0275      23.118
  YS02001759           JUNCTION    142.60   310.96     0  02:59        1.35        2.68       0.867
  YS02001887           JUNCTION    178.12   178.12     0  03:01        1.58        1.59       0.470
  YS02001890           JUNCTION      0.00   176.49     0  03:00           0        1.56       0.525
  YS02001898           JUNCTION      0.00   175.06     0  03:03           0        1.55       0.153
  YS02001901           JUNCTION      0.00   177.15     0  03:05           0        1.55       0.383
  YS02001904           JUNCTION      0.00   180.02     0  03:05           0        1.55       0.351
  YS02001907           JUNCTION      0.00   351.32     0  03:05           0        3.37       0.674
  YS02001910           JUNCTION      0.00   164.59     0  03:04           0        1.83       0.580
  YS02001915           JUNCTION    105.26   159.42     0  03:03        1.07        1.84       0.266
  YS02001918           JUNCTION      0.00    55.77     0  03:04           0       0.767       0.179
  YS02001619           JUNCTION    102.81   102.81     0  03:01        1.06        1.06       1.059
  YS02001629           JUNCTION      0.00   218.81     0  02:52           0       0.982       2.835
  YS02001641           JUNCTION      0.00   245.58     0  03:04           0        2.13       0.991
  YS02001644           JUNCTION    113.29   355.92     0  03:04        1.22        3.41       0.771
  YS02001652           JUNCTION      0.00   184.46     0  03:04           0        1.13       2.141
  YS02001655           JUNCTION      0.15   307.43     0  02:53     0.00443        1.15       1.960
  YS02001920           JUNCTION      2.87    55.04     0  03:02      0.0827        0.77       0.301
  YS02001923           JUNCTION      0.04    52.17     0  03:02     0.00109       0.687       0.054
  YS02001926           JUNCTION      0.05    52.31     0  03:01      0.0015       0.689       0.372
  YS02001929           JUNCTION     52.30    52.30     0  03:01       0.688       0.688       0.052
  YS02001658           JUNCTION      0.00   502.62     0  03:05           0        1.21       1.267
  YS02001661           JUNCTION      0.00   442.43     0  03:35           0        1.51       0.138
  YS02001664           JUNCTION    129.12   363.72     0  03:34        1.17        1.47       0.095
  YS02001622           JUNCTION      0.00   156.54     0  02:52           0        1.05       3.018
  YS02001633           JUNCTION    115.33   244.95     0  03:04        1.25        2.19       1.478
  YS02001649           JUNCTION      0.00   492.54     0  03:02           0        3.99       0.944
  YS02001757           JUNCTION      0.00   871.91     0  03:02           0        7.69       1.206
  YS02001895           JUNCTION      0.00   175.41     0  03:01           0        1.56       0.257
  YS02001625           JUNCTION      0.00   219.96     0  02:52           0        1.02       3.884
  YS02163301           JUNCTION      0.00   133.23     0  03:04           0       0.961       2.541
  YS02163601           JUNCTION      0.11   245.36     0  03:04     0.00317        2.15       1.414
  YS02164001           JUNCTION      0.00   245.23     0  03:04           0        2.13       0.929
  YS02001647           JUNCTION      0.00   355.63     0  03:04           0        2.93       0.949
  YSB1154              JUNCTION     10.01    10.01     0  02:24      0.0659      0.0666       2.220
  YSB6556              JUNCTION      0.00     9.94     0  02:24           0      0.0673       1.887
  YSB1174              JUNCTION      7.62     7.62     0  02:23      0.0479      0.0483       2.727
  YSB1171              JUNCTION      0.00    18.22     0  01:11           0       0.121       5.514
  YS02006553           JUNCTION      0.00   352.15     0  03:05           0        3.36       0.436
  YS02006561           JUNCTION      0.00   532.13     0  03:05           0        4.75       0.012
  YS02006556           JUNCTION      0.00   352.31     0  03:05           0        3.36       0.316
  YS02006558           JUNCTION    155.63   511.55     0  03:05        1.44        4.78       0.099
  YS02001783           JUNCTION      0.00   493.34     0  03:04           0        4.75       0.035
  YS02001784           JUNCTION      1.06   495.91     0  02:59      0.0305        4.78       0.053
  YS02001786           JUNCTION      0.06   514.93     0  02:58     0.00162        4.78       0.055
  YS02001788           JUNCTION      0.07   571.48     0  02:58     0.00204        4.78       0.033
  YS02001790           JUNCTION      0.15   622.87     0  02:57     0.00446        4.78       0.015
  YS02001791           JUNCTION      0.00   673.54     0  02:58           0        4.78       0.012
  YS02001793           JUNCTION      0.00   708.86     0  02:58           0        4.79      -0.034
  WSC                  OUTFALL       0.00   956.57     0  04:36           0        17.8       0.000
  JK-storage           STORAGE       0.00   732.46     0  03:01           0        4.94     -19.718
  CC-storage           STORAGE       0.00   872.00     0  03:02           0        7.53       0.707
  XR-storage           STORAGE     419.73   419.73     0  03:01        8.32        8.92      -0.000
  
  
  **********************
  Node Surcharge Summary
  **********************
  
  Surcharging occurs when water rises above the top of the highest conduit.
  ---------------------------------------------------------------------
                                               Max. Height   Min. Depth
                                   Hours       Above Crown    Below Rim
  Node                 Type      Surcharged         Meters       Meters
  ---------------------------------------------------------------------
  WS02006109           JUNCTION        3.19          0.181        1.639
  WS02006110           JUNCTION        1.01          0.031        1.819
  WS02006112           JUNCTION        1.40          0.070        1.610
  WS02006230           JUNCTION        0.71          0.055        1.515
  WS02006231           JUNCTION        1.42          0.169        1.361
  WS02006232           JUNCTION        2.95          0.376        1.104
  WS02006234           JUNCTION        2.23          0.364        0.876
  WS02006235           JUNCTION        2.62          0.463        0.827
  WS02006238           JUNCTION        2.77          0.480        0.950
  WS02006240           JUNCTION        2.36          0.437        0.953
  WS02006242           JUNCTION        2.76          0.513        0.307
  WS02006243           JUNCTION        2.08          0.452        0.318
  WS02006245           JUNCTION        1.99          0.441        0.409
  WS02006247           JUNCTION        2.06          0.452        0.308
  WS02006248           JUNCTION        1.80          0.373        0.007
  WS02006249           JUNCTION        1.91          0.390        0.000
  WS02006239           JUNCTION        2.51          0.441        0.849
  WS02006251           JUNCTION        1.04          0.395        0.785
  WS02006252           JUNCTION        3.02          0.518        0.582
  WS02006253           JUNCTION        1.07          0.358        2.122
  WS02006256           JUNCTION        7.07          2.050        0.000
  WS02006228           JUNCTION        3.05          0.222        1.978
  YS02001748           JUNCTION        3.86          0.209        0.981
  YS02001751           JUNCTION        5.02          0.491        0.709
  YS02001754           JUNCTION        5.32          0.718        0.432
  YS02001762           JUNCTION        5.67          0.993        0.157
  YS02001765           JUNCTION        5.62          0.948        0.152
  YS02001767           JUNCTION        5.58          0.911        0.119
  YS02001770           JUNCTION        5.54          0.879        0.041
  YS02001774           JUNCTION        5.66          0.971        0.079
  YS02001779           JUNCTION        5.25          0.680        0.000
  YS02001759           JUNCTION        5.72          1.021        0.189
  YS02001619           JUNCTION        4.93          0.610        0.000
  YS02001629           JUNCTION        4.96          0.470        0.000
  YS02001641           JUNCTION        5.64          0.946        0.154
  YS02001644           JUNCTION        5.65          0.920        0.000
  YS02001652           JUNCTION        5.39          0.903        0.227
  YS02001655           JUNCTION        5.06          1.020        0.180
  YS02001658           JUNCTION        3.95          1.066        0.234
  YS02001622           JUNCTION        5.03          0.515        0.105
  YS02001633           JUNCTION        5.60          0.941        0.119
  YS02001649           JUNCTION        5.69          0.997        0.053
  YS02001757           JUNCTION        5.88          1.115        0.095
  YS02001625           JUNCTION        5.45          0.780        0.000
  YS02163301           JUNCTION        5.56          0.897        0.133
  YS02163601           JUNCTION        5.69          1.015        0.065
  YS02164001           JUNCTION        5.62          0.946        0.154
  YS02001647           JUNCTION        5.42          0.760        0.140
  YS02001784           JUNCTION        0.01          0.039        1.451
  YS02001788           JUNCTION        0.01          0.075        1.405
  YS02001790           JUNCTION        0.55          1.157        0.000
  YS02001791           JUNCTION        0.68          1.291        0.629
  YS02001793           JUNCTION        0.91          1.049        1.551
  
  
  *********************
  Node Flooding Summary
  *********************
  
  Flooding refers to all water that overflows a node, whether it ponds or not.
  --------------------------------------------------------------------------
                                                             Total   Maximum
                                 Maximum   Time of Max       Flood    Ponded
                        Hours       Rate    Occurrence      Volume     Depth
  Node                 Flooded       LPS   days hr:min    10^6 ltr    Meters
  --------------------------------------------------------------------------
  WS02006249              0.99    113.75      0  03:59       0.194     0.000
  WS02006256              2.66    789.61      0  04:00       2.954     0.000
  YS02001779              0.42     18.50      0  03:58       0.004     0.000
  YS02001619              0.01     14.78      0  03:05       0.000     0.000
  YS02001629              0.01      5.27      0  03:31       0.000     0.000
  YS02001644              1.54    282.17      0  05:28       0.528     0.000
  YS02001625              0.09     22.64      0  03:31       0.001     0.000
  YS02001790              0.01    142.78      0  03:45       0.000     0.000
  JK-storage              0.29    381.51      0  02:50       0.191     0.000
  
  
  **********************
  Storage Volume Summary
  **********************
  
  --------------------------------------------------------------------------------------------------
                         Average     Avg  Evap Exfil       Maximum     Max    Time of Max    Maximum
                          Volume    Pcnt  Pcnt  Pcnt        Volume    Pcnt     Occurrence    Outflow
  Storage Unit           1000 m3    Full  Loss  Loss       1000 m3    Full    days hr:min        LPS
  --------------------------------------------------------------------------------------------------
  JK-storage               0.097      33     0     0         0.291     100       0  02:49     983.00
  CC-storage               3.001      19     0     0         3.812      24       0  05:23     400.00
  XR-storage               0.350      38     0     0         0.803      87       0  06:46     380.00
  
  
  ***********************
  Outfall Loading Summary
  ***********************
  
  ---------------------------------------------------------------------------------------------------------------------------------
                         Flow       Avg       Max       Total         Total         Total         Total         Total         Total
                         Freq      Flow      Flow      Volume           COD            SS            TN            TP         NH4-N
  Outfall Node           Pcnt       LPS       LPS    10^6 ltr            kg            kg            kg            kg            kg
  ---------------------------------------------------------------------------------------------------------------------------------
  WSC                   99.98    690.26    956.57      17.814      2119.301      3454.274       164.634        19.953       101.257
  ---------------------------------------------------------------------------------------------------------------------------------
  System                99.98    690.26    956.57      17.814      2119.301      3454.274       164.634        19.953       101.257
  
  
  ********************
  Link Flow Summary
  ********************
  
  -----------------------------------------------------------------------------
                                 Maximum  Time of Max   Maximum    Max/    Max/
                                  |Flow|   Occurrence   |Veloc|    Full    Full
  Link                 Type          LPS  days hr:min     m/sec    Flow   Depth
  -----------------------------------------------------------------------------
  WS02003066WSF200     CONDUIT    550.65     0  04:31      2.80    0.09    0.23
  WS02006287WS02006284 CONDUIT    157.34     0  02:27      1.48    0.07    0.19
  WS02006284WS02006280 CONDUIT    157.44     0  02:27      1.72    0.07    0.17
  WS02006280WS02006229 CONDUIT    157.44     0  02:27      2.76    0.03    0.13
  WS02006229WS02006228 CONDUIT    558.29     0  04:00      1.11    1.85    1.00
  WS02006256WS02006235 CONDUIT    288.92     0  00:00      4.23    3.06    1.00
  WS02006253WS02006251 CONDUIT    117.94     0  07:12      0.45    0.35    1.00
  WS02006252WS02006251 CONDUIT    403.89     0  07:14      3.21    1.48    1.00
  WS02006251WS02006249 CONDUIT    428.58     0  03:59      1.11    1.24    1.00
  WS02006249WS02006248 CONDUIT    416.14     0  04:40      1.14    2.28    1.00
  WS02006248WS02006247 CONDUIT    416.15     0  04:40      1.10    0.91    1.00
  WS02006247WS02006245 CONDUIT    416.72     0  04:40      1.08    3.30    1.00
  WS02006245WS02006243 CONDUIT    417.02     0  04:40      1.09    1.23    1.00
  WS02006243WS02006242 CONDUIT    417.32     0  04:40      1.08    0.89    1.00
  WS02006242WS02006240 CONDUIT    417.49     0  04:40      1.08    1.66    1.00
  WS02006240WS02006239 CONDUIT    417.89     0  04:40      1.09    1.31    1.00
  WS02006239WS02006238 CONDUIT    418.49     0  04:40      1.09    1.34    1.00
  WS02006238WS02006235 CONDUIT    418.17     0  04:40      1.45    0.93    1.00
  WS02006235WS02006234 CONDUIT    523.95     0  07:14      1.36    5.53    1.00
  WS02006234WS02006232 CONDUIT    523.22     0  07:14      1.39    1.06    1.00
  WS02006232WS02006231 CONDUIT    523.18     0  07:14      1.36    1.10    1.00
  WS02006231WS02006230 CONDUIT    523.43     0  07:14      1.41    7.94    1.00
  WS02006230WS02006229 CONDUIT    533.01     0  07:15      1.38   11.86    1.00
  WS02006228WS02006109 CONDUIT    557.65     0  04:00      1.11    2.44    1.00
  WS02006116WS02004401 CONDUIT    555.24     0  04:04      1.00    0.77    0.85
  WS02006115WS02006116 CONDUIT    556.88     0  04:04      1.02    0.71    0.77
  WS02006113WS02006111 CONDUIT    580.38     0  04:04      2.49    0.70    0.47
  WS02006112WS02006115 CONDUIT    566.99     0  04:04      0.78    0.33    0.88
  WS02006111WS02006112 CONDUIT    563.45     0  04:04      1.60    0.27    0.68
  WS02006110WS02006113 CONDUIT    559.14     0  04:00      1.32    0.51    0.79
  WS02006109WS02006110 CONDUIT    559.08     0  04:00      1.11    1.07    1.00
  WS02004411WS02004412 CONDUIT    550.67     0  04:30      0.93    0.78    0.70
  WS02004401WS02004402 CONDUIT    554.16     0  04:05      1.00    0.67    0.88
  WS02004413WS02003067 CONDUIT    550.64     0  04:31      1.13    0.24    0.60
  WS02004412WS02004413 CONDUIT    550.66     0  04:30      0.83    0.37    0.78
  WS02004410WS02004411 CONDUIT    550.70     0  04:30      0.95    0.75    0.69
  WS02004409WS02004410 CONDUIT    550.90     0  04:07      0.97    0.71    0.68
  WS02004407WS02004409 CONDUIT    552.90     0  04:06      1.49    0.20    0.49
  WS02004406WS02004407 CONDUIT    553.02     0  04:06      1.06    0.25    0.63
  WS02004405WS02004406 CONDUIT    553.52     0  04:06      1.10    1.09    0.97
  WS02004404WS02004405 CONDUIT    553.20     0  04:05      1.15    5.42    0.97
  WS02004403WS02004404 CONDUIT    553.10     0  04:05      0.98    0.40    0.94
  WS02004402WS02004403 CONDUIT    553.64     0  04:05      1.02    0.80    0.90
  WS02004139WS02001211 CONDUIT    381.84     0  04:47      0.90    0.48    0.60
  WS02004138WS02004139 CONDUIT    395.52     0  00:00      3.64    0.08    0.44
  WS02003067WS02003066 CONDUIT    550.65     0  04:31      1.22    0.18    0.42
  WS02001213WS02003059 CONDUIT    394.70     0  04:48      0.89    0.65    0.78
  WS02001212WS02001213 CONDUIT    392.38     0  04:47      1.32    0.61    0.48
  WS02001211WS02001212 CONDUIT    390.87     0  04:47      0.78    0.30    0.65
  WS02003072WS02003073 CONDUIT    954.77     0  04:35      1.74    2.06    0.49
  WS02003069WS02003072 CONDUIT    954.77     0  04:35      1.63    0.46    0.51
  WS02003060WS02003069 CONDUIT    954.45     0  04:34      1.87    0.37    0.46
  WS02003059WS02003060 CONDUIT    397.78     0  04:47      0.95    0.26    0.67
  HS02004901HS02004770 CONDUIT      6.87     0  02:24      0.07    0.03    0.28
  HS02004876HS02004881 CONDUIT     27.64     0  02:26      0.48    0.29    0.08
  HS02004870HS02004876 CONDUIT     22.04     0  02:26      0.34    0.01    0.09
  HS02004842HS02004848 CONDUIT      5.63     0  02:36      0.03    0.00    0.27
  HS02004837HS02004842 CONDUIT      5.71     0  03:02      0.42    0.00    0.28
  HS02004830HS02004837 CONDUIT     21.59     0  02:26      0.43    0.02    0.07
  HS02004824HS02004830 CONDUIT     21.73     0  02:26      0.46    0.03    0.07
  HS02004817HS02004824 CONDUIT     36.92     0  02:27      0.17    0.02    0.39
  HS02004770HS02004777 CONDUIT     36.12     0  02:24      0.23    0.07    0.30
  HS02004799HS02004480 CONDUIT     92.61     0  02:25      0.50    0.12    0.27
  HS02004792HS02004799 CONDUIT     84.35     0  02:25      0.57    0.05    0.21
  HS02004788HS02004792 CONDUIT     49.19     0  02:26      0.73    0.03    0.10
  HS02004785HS02004788 CONDUIT     36.08     0  02:26      0.43    0.27    0.12
  HS02004777HS02004785 CONDUIT     35.99     0  02:25      0.22    0.04    0.24
  HS02004480HS02004478 CONDUIT    109.85     0  02:26      0.84    0.46    0.19
  HS02004479HS02004480 CONDUIT     17.44     0  02:28      0.34    0.02    0.26
  HS02004862HS02004870 CONDUIT     16.49     0  02:27      0.43    0.02    0.05
  HS02004848HS02004852 CONDUIT      6.79     0  02:25      0.29    0.01    0.03
  HS02004856HS02004862 CONDUIT     10.92     0  02:26      0.31    0.01    0.05
  HS02004852HS02004856 CONDUIT      6.77     0  02:27      0.11    0.01    0.09
  HS02004802HS02004478 CONDUIT     47.71     0  02:29      0.29    0.04    0.23
  HS02004478WS02006287 CONDUIT    157.35     0  02:27      1.17    0.04    0.15
  HS02004817HS02004807 CONDUIT     37.58     0  02:28      0.11    0.02    0.49
  HS02004807HS02004802 CONDUIT     47.64     0  02:28      0.24    0.09    0.28
  YS02001759YS02001757 CONDUIT    313.27     0  02:59      0.40    0.22    1.00
  YS02001762YS02001759 CONDUIT    172.16     0  03:10      0.22    0.20    1.00
  YS02001765YS02001762 CONDUIT    167.10     0  03:10      0.31    0.16    1.00
  YS02001770YS02001767 CONDUIT    160.52     0  03:00      0.33    0.64    1.00
  YS02001774YS02001770 CONDUIT     32.21     0  01:48      0.30    0.02    1.00
  YS02001779YS02001774 CONDUIT     19.83     0  03:58      0.06    0.01    1.00
  YS02001649YS02001757 CONDUIT    495.00     0  03:02      0.63    0.30    1.00
  YS02001767YS02001765 CONDUIT    163.36     0  02:59      0.36    0.21    1.00
  YS02006561YS02001783 CONDUIT    493.34     0  03:04      1.99    0.26    0.63
  YS02001783YS02001784 CONDUIT    494.85     0  02:59      1.43    0.68    0.95
  YS02001784YS02001785 CONDUIT    514.88     0  02:58      1.56    1.20    0.99
  YS02001788YS02001790 CONDUIT    622.72     0  02:57      2.09    0.46    1.00
  YS02001790YS02001791 CONDUIT    673.54     0  02:58      2.47    0.73    1.00
  YS02001791YS02001793 CONDUIT    708.86     0  02:58      5.03    0.30    1.00
  YS02001910YS02001907 CONDUIT    167.79     0  03:05      0.49    0.09    0.86
  YS02001786YS02001788 CONDUIT    571.41     0  02:58      2.02    1.10    0.99
  YS02001915YS02001910 CONDUIT    164.59     0  03:04      0.61    0.08    0.65
  YS02001918YS02001915 CONDUIT     58.25     0  03:06      0.44    0.03    0.37
  YS02001923YS02001920 CONDUIT     52.17     0  03:02      0.54    0.02    0.19
  YS02001926YS02001923 CONDUIT     52.13     0  03:02      0.60    0.07    0.17
  YS02001929YS02001926 CONDUIT     52.25     0  03:01      0.65    0.02    0.16
  YS02001920YS02001918 CONDUIT     55.77     0  03:04      0.54    0.05    0.23
  YS02001629YS02163301 CONDUIT    133.23     0  03:04      0.17    0.16    1.00
  YS02001619YS02001622 CONDUIT    156.54     0  02:52      0.55    0.23    1.00
  YS02001622YS02001625 CONDUIT    219.96     0  02:52      0.41    0.12    1.00
  YS02001625YS02001629 CONDUIT    218.81     0  02:52      0.29    0.10    1.00
  YS02163301YS02001633 CONDUIT    133.16     0  03:04      0.17    0.13    1.00
  YS02163601YS02164001 CONDUIT    245.23     0  03:04      0.31    0.22    1.00
  YS02164001YS02001641 CONDUIT    245.58     0  03:04      0.31    0.34    1.00
  YS02001641YS02001644 CONDUIT    246.17     0  03:04      0.31    0.80    1.00
  YS02001647YS02001649 CONDUIT    355.22     0  03:04      0.45    0.19    1.00
  YS02006553YS02006556 CONDUIT    352.31     0  03:05      0.46    0.30    0.94
  YS02006556YS02006558 CONDUIT    365.07     0  03:05      0.47    0.29    0.96
  YSB6556YSB1171       CONDUIT      9.95     0  02:27      0.08    0.01    0.53
  YS02001907YS02006553 CONDUIT    352.15     0  03:05      0.39    0.41    1.00
  YS02006558YS02006561 CONDUIT    532.13     0  03:05      2.82    1.18    0.64
  YS02001633YS02163601 CONDUIT    245.25     0  03:04      0.31    0.26    1.00
  YS02001644YS02001647 CONDUIT    355.63     0  03:04      0.45    0.21    1.00
  YS02001745YS02001748 CONDUIT    313.99     0  03:07      1.37    0.12    0.92
  YS02001748YS02001751 CONDUIT    245.42     0  02:55      0.98    0.12    1.00
  YS02001751YS02001754 CONDUIT    179.68     0  02:53      0.78    0.09    1.00
  YS02001754YS02001757 CONDUIT    177.66     0  02:53      0.33    0.07    1.00
  YS02001882YS02001884 CONDUIT      2.90     0  03:11      0.13    0.00    0.58
  YS02001884YS02001887 CONDUIT      7.49     0  01:37      0.09    0.01    0.68
  YS02001890YS02001895 CONDUIT    175.41     0  03:01      0.33    0.08    0.65
  YS02001895YS02001898 CONDUIT    175.06     0  03:03      0.45    0.30    0.51
  YS02001898YS02001901 CONDUIT    177.15     0  03:05      0.37    0.11    0.59
  YS02001901YS02001904 CONDUIT    180.02     0  03:05      0.34    0.28    0.64
  YS02001904YS02001907 CONDUIT    184.34     0  03:05      0.28    0.06    0.80
  YS02001887YS02001890 CONDUIT    176.49     0  03:00      0.29    0.30    0.73
  YS02001652YS02001649 CONDUIT    184.92     0  03:04      0.66    0.09    1.00
  YS02001655YS02001652 CONDUIT    184.46     0  03:04      0.83    0.09    1.00
  YS02001658YS02001655 CONDUIT    307.27     0  02:53      1.13    0.13    1.00
  YS02001661YS02001658 CONDUIT    502.62     0  03:05      1.42    0.20    1.00
  YS02001664YS02001661 CONDUIT    442.43     0  03:35      1.27    0.14    0.70
  YSB1154YSB6556       CONDUIT      9.94     0  02:24      0.15    0.02    0.42
  YSB1174YSB1171       CONDUIT      7.88     0  01:18      0.05    0.01    0.54
  YSB1171HS02004479    CONDUIT     17.35     0  02:27      0.54    0.01    0.41
  HS02004881HS02006253 CONDUIT     30.59     0  02:26      1.51    0.01    0.50
  YS02001793JiankangQianchi CONDUIT    732.46     0  03:01     15.03    0.06    1.00
  YS02001757CaochengTiaoxuchi CONDUIT    872.00     0  03:02      1.19    0.38    1.00
  WSF200WS02003060     CONDUIT    550.67     0  04:31      1.97    0.12    0.34
  1                    CONDUIT    956.57     0  04:36      3.29    0.33    0.40
  CC-Pump-1            PUMP       200.00     0  03:30              1.00
  CC-Pump-2            PUMP       200.00     0  03:30              1.00
  JK-Pump-1            PUMP       300.00     0  00:00              1.00
  JK-Pump-2            PUMP       683.00     0  03:00              1.00
  XR-Pump-1            PUMP        95.00     0  00:00              1.00
  XR-Pump-2            PUMP        95.00     0  00:00              1.00
  XR-Pump-3            PUMP        95.00     0  00:00              1.00
  XR-Pump-4            PUMP        95.00     0  00:00              1.00
  
  
  ***************************
  Flow Classification Summary
  ***************************
  
  -------------------------------------------------------------------------------------
                      Adjusted    ---------- Fraction of Time in Flow Class ---------- 
                       /Actual         Up    Down  Sub   Sup   Up    Down  Norm  Inlet 
  Conduit               Length    Dry  Dry   Dry   Crit  Crit  Crit  Crit  Ltd   Ctrl  
  -------------------------------------------------------------------------------------
  WS02003066WSF200        1.00   0.01  0.02  0.00  0.00  0.97  0.00  0.00  0.74  0.00
  WS02006287WS02006284    1.00   0.03  0.01  0.00  0.73  0.23  0.00  0.00  0.84  0.00
  WS02006284WS02006280    1.00   0.04  0.00  0.00  0.00  0.00  0.00  0.96  0.00  0.00
  WS02006280WS02006229    1.00   0.04  0.00  0.00  0.00  0.00  0.00  0.96  0.00  0.00
  WS02006229WS02006228    1.00   0.00  0.00  0.00  1.00  0.00  0.00  0.00  0.00  0.00
  WS02006256WS02006235    1.00   0.00  0.00  0.00  1.00  0.00  0.00  0.00  0.00  0.00
  WS02006253WS02006251    1.00   0.02  0.02  0.00  0.96  0.00  0.01  0.00  0.00  0.00
  WS02006252WS02006251    1.00   0.19  0.00  0.00  0.08  0.00  0.72  0.00  0.00  0.00
  WS02006251WS02006249    1.00   0.00  0.00  0.00  1.00  0.00  0.00  0.00  0.37  0.00
  WS02006249WS02006248    1.00   0.00  0.01  0.00  0.88  0.00  0.12  0.00  0.00  0.00
  WS02006248WS02006247    1.00   0.01  0.00  0.00  0.99  0.00  0.00  0.00  0.21  0.00
  WS02006247WS02006245    1.00   0.00  0.00  0.00  0.99  0.00  0.00  0.00  0.00  0.00
  WS02006245WS02006243    1.00   0.00  0.00  0.00  0.97  0.00  0.00  0.03  0.01  0.00
  WS02006243WS02006242    1.00   0.00  0.00  0.00  1.00  0.00  0.00  0.00  0.23  0.00
  WS02006242WS02006240    1.00   0.00  0.00  0.00  1.00  0.00  0.00  0.00  0.00  0.00
  WS02006240WS02006239    1.00   0.00  0.00  0.00  0.95  0.00  0.00  0.05  0.01  0.00
  WS02006239WS02006238    1.00   0.00  0.00  0.00  1.00  0.00  0.00  0.00  0.12  0.00
  WS02006238WS02006235    1.00   0.00  0.00  0.00  1.00  0.00  0.00  0.00  0.00  0.00
  WS02006235WS02006234    1.00   0.00  0.00  0.00  0.96  0.00  0.04  0.00  0.00  0.00
  WS02006234WS02006232    1.00   0.00  0.00  0.00  1.00  0.00  0.00  0.00  0.09  0.00
  WS02006232WS02006231    1.00   0.00  0.00  0.00  1.00  0.00  0.00  0.00  0.00  0.00
  WS02006231WS02006230    1.00   0.00  0.00  0.00  0.74  0.00  0.26  0.00  0.00  0.00
  WS02006230WS02006229    1.00   0.00  0.00  0.00  1.00  0.00  0.00  0.00  0.00  0.00
  WS02006228WS02006109    1.00   0.00  0.00  0.00  1.00  0.00  0.00  0.00  0.00  0.00
  WS02006116WS02004401    1.00   0.01  0.00  0.00  0.99  0.00  0.00  0.00  0.00  0.00
  WS02006115WS02006116    1.00   0.01  0.00  0.00  0.99  0.00  0.00  0.00  0.00  0.00
  WS02006113WS02006111    1.00   0.01  0.00  0.00  0.00  0.99  0.00  0.00  0.19  0.00
  WS02006112WS02006115    1.00   0.01  0.00  0.00  0.99  0.00  0.00  0.00  0.00  0.00
  WS02006111WS02006112    1.00   0.01  0.00  0.00  0.99  0.00  0.00  0.00  0.98  0.00
  WS02006110WS02006113    1.00   0.00  0.00  0.00  0.99  0.00  0.00  0.00  0.00  0.00
  WS02006109WS02006110    1.00   0.00  0.00  0.00  0.99  0.00  0.00  0.00  0.00  0.00
  WS02004411WS02004412    1.00   0.02  0.00  0.00  0.98  0.00  0.00  0.00  0.00  0.00
  WS02004401WS02004402    1.00   0.01  0.00  0.00  0.99  0.00  0.00  0.00  0.00  0.00
  WS02004413WS02003067    1.00   0.02  0.01  0.00  0.00  0.00  0.98  0.00  0.00  0.00
  WS02004412WS02004413    1.00   0.02  0.00  0.00  0.98  0.00  0.00  0.00  0.01  0.00
  WS02004410WS02004411    1.00   0.02  0.00  0.00  0.98  0.00  0.00  0.00  0.00  0.00
  WS02004409WS02004410    1.00   0.02  0.00  0.00  0.98  0.00  0.00  0.00  0.01  0.00
  WS02004407WS02004409    1.00   0.02  0.00  0.00  0.98  0.00  0.00  0.00  0.95  0.00
  WS02004406WS02004407    1.00   0.00  0.01  0.00  0.98  0.00  0.00  0.00  0.00  0.00
  WS02004405WS02004406    1.00   0.00  0.00  0.00  1.00  0.00  0.00  0.00  0.00  0.00
  WS02004404WS02004405    1.00   0.00  0.00  0.00  1.00  0.00  0.00  0.00  0.00  0.00
  WS02004403WS02004404    1.00   0.00  0.01  0.00  0.99  0.00  0.00  0.00  0.00  0.00
  WS02004402WS02004403    1.00   0.01  0.00  0.00  0.99  0.00  0.00  0.00  0.00  0.00
  WS02004139WS02001211    1.00   0.00  0.00  0.00  1.00  0.00  0.00  0.00  0.00  0.00
  WS02004138WS02004139    1.00   0.00  0.03  0.00  0.97  0.00  0.00  0.00  1.00  0.00
  WS02003067WS02003066    1.00   0.02  0.00  0.00  0.97  0.00  0.00  0.00  0.00  0.00
  WS02001213WS02003059    1.00   0.00  0.00  0.00  1.00  0.00  0.00  0.00  0.00  0.00
  WS02001212WS02001213    1.00   0.00  0.00  0.00  0.92  0.00  0.08  0.00  0.00  0.00
  WS02001211WS02001212    1.00   0.00  0.00  0.00  1.00  0.00  0.00  0.00  0.00  0.00
  WS02003072WS02003073    1.00   0.00  0.00  0.00  0.00  0.00  0.00  1.00  0.00  0.00
  WS02003069WS02003072    1.00   0.00  0.00  0.00  1.00  0.00  0.00  0.00  0.16  0.00
  WS02003060WS02003069    1.00   0.00  0.00  0.00  0.99  0.01  0.00  0.00  0.11  0.00
  WS02003059WS02003060    1.00   0.00  0.00  0.00  1.00  0.00  0.00  0.00  0.01  0.00
  HS02004901HS02004770    1.00   0.04  0.00  0.00  0.96  0.00  0.00  0.00  0.00  0.00
  HS02004876HS02004881    1.00   0.01  0.00  0.00  0.99  0.00  0.00  0.00  0.00  0.00
  HS02004870HS02004876    1.00   0.00  0.00  0.00  0.99  0.00  0.00  0.00  0.95  0.00
  HS02004842HS02004848    1.00   0.00  0.04  0.00  0.96  0.00  0.00  0.00  0.58  0.00
  HS02004837HS02004842    1.00   0.00  0.00  0.00  1.00  0.00  0.00  0.00  0.11  0.00
  HS02004830HS02004837    1.00   0.00  0.00  0.00  1.00  0.00  0.00  0.00  0.99  0.00
  HS02004824HS02004830    1.00   0.00  0.00  0.00  1.00  0.00  0.00  0.00  0.00  0.00
  HS02004817HS02004824    1.00   0.00  0.00  0.00  1.00  0.00  0.00  0.00  1.00  0.00
  HS02004770HS02004777    1.00   0.00  0.04  0.00  0.96  0.00  0.00  0.00  0.02  0.00
  HS02004799HS02004480    1.00   0.00  0.01  0.00  0.96  0.00  0.03  0.00  0.00  0.00
  HS02004792HS02004799    1.00   0.00  0.00  0.00  1.00  0.00  0.00  0.00  0.98  0.00
  HS02004788HS02004792    1.00   0.00  0.00  0.00  1.00  0.00  0.00  0.00  0.98  0.00
  HS02004785HS02004788    1.00   0.00  0.00  0.00  1.00  0.00  0.00  0.00  0.00  0.00
  HS02004777HS02004785    1.00   0.00  0.00  0.00  1.00  0.00  0.00  0.00  0.11  0.00
  HS02004480HS02004478    1.00   0.04  0.00  0.00  0.77  0.00  0.00  0.19  0.00  0.00
  HS02004479HS02004480    1.00   0.01  0.00  0.00  0.99  0.00  0.00  0.00  0.11  0.00
  HS02004862HS02004870    1.00   0.00  0.00  0.00  1.00  0.00  0.00  0.00  0.03  0.00
  HS02004848HS02004852    1.00   0.04  0.00  0.00  0.96  0.00  0.00  0.00  0.74  0.00
  HS02004856HS02004862    1.00   0.00  0.04  0.00  0.96  0.00  0.00  0.00  0.84  0.00
  HS02004852HS02004856    1.00   0.04  0.00  0.00  0.96  0.00  0.00  0.00  0.86  0.00
  HS02004802HS02004478    1.00   0.04  0.00  0.00  0.96  0.00  0.00  0.00  0.02  0.00
  HS02004478WS02006287    1.00   0.04  0.00  0.00  0.92  0.03  0.00  0.00  0.84  0.00
  HS02004817HS02004807    1.00   0.00  0.04  0.00  0.96  0.00  0.00  0.00  0.01  0.00
  HS02004807HS02004802    1.00   0.04  0.00  0.00  0.96  0.00  0.00  0.00  0.00  0.00
  YS02001759YS02001757    1.00   0.00  0.00  0.00  1.00  0.00  0.00  0.00  0.15  0.00
  YS02001762YS02001759    1.00   0.00  0.00  0.00  1.00  0.00  0.00  0.00  0.02  0.00
  YS02001765YS02001762    1.00   0.00  0.00  0.00  1.00  0.00  0.00  0.00  0.13  0.00
  YS02001770YS02001767    1.00   0.00  0.00  0.00  1.00  0.00  0.00  0.00  0.00  0.00
  YS02001774YS02001770    1.00   0.00  0.04  0.00  0.96  0.00  0.00  0.00  0.02  0.00
  YS02001779YS02001774    1.00   0.00  0.00  0.00  1.00  0.00  0.00  0.00  0.18  0.00
  YS02001649YS02001757    1.00   0.00  0.00  0.00  1.00  0.00  0.00  0.00  0.15  0.00
  YS02001767YS02001765    1.00   0.00  0.00  0.00  1.00  0.00  0.00  0.00  0.00  0.00
  YS02006561YS02001783    1.00   0.05  0.00  0.00  0.09  0.86  0.00  0.00  0.70  0.00
  YS02001783YS02001784    1.00   0.00  0.05  0.00  0.95  0.00  0.00  0.00  0.01  0.00
  YS02001784YS02001785    1.00   0.00  0.00  0.00  1.00  0.00  0.00  0.00  0.17  0.00
  YS02001788YS02001790    1.00   0.00  0.00  0.00  0.19  0.81  0.00  0.00  0.60  0.00
  YS02001790YS02001791    1.00   0.00  0.00  0.00  0.16  0.84  0.00  0.00  0.58  0.00
  YS02001791YS02001793    1.00   0.00  0.00  0.00  0.20  0.80  0.00  0.00  0.05  0.00
  YS02001910YS02001907    1.00   0.00  0.00  0.00  0.99  0.00  0.00  0.01  0.12  0.00
  YS02001786YS02001788    1.00   0.00  0.00  0.00  0.17  0.83  0.00  0.00  0.00  0.00
  YS02001915YS02001910    1.00   0.00  0.00  0.00  0.99  0.01  0.00  0.00  0.14  0.00
  YS02001918YS02001915    1.00   0.00  0.00  0.00  0.99  0.01  0.00  0.00  0.73  0.00
  YS02001923YS02001920    1.00   0.00  0.00  0.00  1.00  0.00  0.00  0.00  1.00  0.00
  YS02001926YS02001923    1.00   0.00  0.02  0.00  0.00  0.00  0.98  0.00  0.00  0.00
  YS02001929YS02001926    1.00   0.00  0.04  0.00  0.96  0.00  0.00  0.00  0.87  0.00
  YS02001920YS02001918    1.00   0.00  0.00  0.00  1.00  0.00  0.00  0.00  0.00  0.00
  YS02001629YS02163301    1.00   0.04  0.00  0.00  0.96  0.00  0.00  0.00  0.00  0.00
  YS02001619YS02001622    1.00   0.04  0.00  0.00  0.96  0.00  0.00  0.00  0.00  0.00
  YS02001622YS02001625    1.00   0.04  0.00  0.00  0.96  0.00  0.00  0.00  0.04  0.00
  YS02001625YS02001629    1.00   0.04  0.01  0.00  0.93  0.00  0.02  0.00  0.00  0.00
  YS02163301YS02001633    1.00   0.00  0.04  0.00  0.96  0.00  0.00  0.00  0.00  0.00
  YS02163601YS02164001    1.00   0.00  0.02  0.00  0.98  0.00  0.00  0.00  0.00  0.00
  YS02164001YS02001641    1.00   0.00  0.02  0.00  0.98  0.00  0.00  0.00  0.05  0.00
  YS02001641YS02001644    1.00   0.00  0.00  0.00  1.00  0.00  0.00  0.00  0.00  0.00
  YS02001647YS02001649    1.00   0.00  0.05  0.00  0.95  0.00  0.00  0.00  0.01  0.00
  YS02006553YS02006556    1.00   0.01  0.00  0.00  0.99  0.00  0.00  0.00  0.03  0.00
  YS02006556YS02006558    1.00   0.00  0.00  0.00  1.00  0.00  0.00  0.00  0.00  0.00
  YSB6556YSB1171          1.00   0.02  0.02  0.00  0.97  0.00  0.00  0.00  0.00  0.00
  YS02001907YS02006553    1.00   0.00  0.01  0.00  0.99  0.00  0.00  0.00  0.00  0.00
  YS02006558YS02006561    1.00   0.05  0.00  0.00  0.00  0.95  0.00  0.00  0.72  0.00
  YS02001633YS02163601    1.00   0.00  0.00  0.00  1.00  0.00  0.00  0.00  0.14  0.00
  YS02001644YS02001647    1.00   0.00  0.05  0.00  0.95  0.00  0.00  0.00  0.00  0.00
  YS02001745YS02001748    1.00   0.00  0.00  0.00  0.90  0.01  0.00  0.09  0.07  0.00
  YS02001748YS02001751    1.00   0.00  0.00  0.00  0.97  0.03  0.00  0.00  0.16  0.00
  YS02001751YS02001754    1.00   0.00  0.00  0.00  0.94  0.00  0.00  0.06  0.03  0.00
  YS02001754YS02001757    1.00   0.00  0.00  0.00  1.00  0.00  0.00  0.00  0.17  0.00
  YS02001882YS02001884    1.00   0.04  0.00  0.00  0.96  0.00  0.00  0.00  0.00  0.00
  YS02001884YS02001887    1.00   0.02  0.01  0.00  0.97  0.00  0.00  0.00  0.00  0.00
  YS02001890YS02001895    1.00   0.00  0.04  0.00  0.96  0.00  0.00  0.00  0.00  0.00
  YS02001895YS02001898    1.00   0.04  0.00  0.00  0.95  0.00  0.01  0.00  0.00  0.00
  YS02001898YS02001901    1.00   0.04  0.00  0.00  0.96  0.00  0.00  0.00  0.02  0.00
  YS02001901YS02001904    1.00   0.04  0.00  0.00  0.96  0.00  0.00  0.00  0.00  0.00
  YS02001904YS02001907    1.00   0.00  0.04  0.00  0.96  0.00  0.00  0.00  0.00  0.00
  YS02001887YS02001890    1.00   0.00  0.00  0.00  0.99  0.00  0.01  0.00  0.00  0.00
  YS02001652YS02001649    1.00   0.00  0.00  0.00  1.00  0.00  0.00  0.00  0.16  0.00
  YS02001655YS02001652    1.00   0.00  0.00  0.00  0.94  0.00  0.00  0.05  0.03  0.00
  YS02001658YS02001655    1.00   0.00  0.04  0.00  0.93  0.03  0.00  0.00  0.12  0.00
  YS02001661YS02001658    1.00   0.04  0.00  0.00  0.90  0.06  0.00  0.00  0.17  0.00
  YS02001664YS02001661    1.00   0.04  0.00  0.00  0.91  0.06  0.00  0.00  0.28  0.00
  YSB1154YSB6556          1.00   0.03  0.00  0.00  0.97  0.00  0.00  0.00  0.01  0.00
  YSB1174YSB1171          1.00   0.02  0.01  0.00  0.97  0.00  0.00  0.00  0.00  0.00
  YSB1171HS02004479       1.00   0.01  0.00  0.00  0.98  0.00  0.00  0.00  0.10  0.00
  HS02004881HS02006253    1.00   0.02  0.00  0.00  0.76  0.00  0.00  0.22  0.55  0.00
  YS02001793JiankangQianchi    1.00   0.00  0.00  0.00  0.60  0.40  0.00  0.00  0.50  0.00
  YS02001757CaochengTiaoxuchi    1.00   0.00  0.07  0.00  0.93  0.00  0.00  0.00  0.00  0.00
  WSF200WS02003060        1.00   0.00  0.01  0.00  0.80  0.20  0.00  0.00  0.38  0.00
  1                       1.00   0.00  0.00  0.00  0.00  1.00  0.00  0.00  0.45  0.00
  
  
  *************************
  Conduit Surcharge Summary
  *************************
  
  ----------------------------------------------------------------------------
                                                           Hours        Hours 
                         --------- Hours Full --------   Above Full   Capacity
  Conduit                Both Ends  Upstream  Dnstream   Normal Flow   Limited
  ----------------------------------------------------------------------------
  WS02006229WS02006228        3.05      3.31      3.05      5.00         3.05
  WS02006256WS02006235        6.17      6.17      7.07      4.00         0.01
  WS02006253WS02006251        1.83      1.83      1.94      0.01         0.01
  WS02006252WS02006251        1.89      1.89      3.01      2.71         0.01
  WS02006251WS02006249        1.85      1.86      1.91      1.72         1.31
  WS02006249WS02006248        1.79      1.80      1.91      4.27         0.01
  WS02006248WS02006247        1.87      1.87      2.06      0.01         0.01
  WS02006247WS02006245        1.99      2.12      1.99      4.38         1.98
  WS02006245WS02006243        2.01      2.04      2.08      1.23         0.92
  WS02006243WS02006242        2.15      2.15      2.76      0.01         0.01
  WS02006242WS02006240        2.36      2.36      3.01      3.16         0.01
  WS02006240WS02006239        2.40      2.45      2.51      2.06         1.22
  WS02006239WS02006238        2.73      2.82      2.77      2.15         1.43
  WS02006238WS02006235        2.69      2.69      2.95      0.01         0.01
  WS02006235WS02006234        2.23      2.23      2.62      6.11         0.01
  WS02006234WS02006232        2.44      2.44      2.95      1.16         1.11
  WS02006232WS02006231        1.42      1.42      2.95      1.32         0.01
  WS02006231WS02006230        0.71      0.71      1.50      6.21         0.01
  WS02006230WS02006229        4.23      4.70      4.23      6.41         4.23
  WS02006228WS02006109        3.19      3.75      3.19      5.74         3.19
  WS02006112WS02006115        0.01      0.01      1.40      0.01         0.01
  WS02006111WS02006112        0.01      0.01      5.28      0.01         0.01
  WS02006110WS02006113        0.01      0.01      3.54      0.01         0.01
  WS02006109WS02006110        1.00      1.00      3.75      1.02         0.01
  WS02004405WS02004406        0.01      0.01      0.01      1.18         0.01
  WS02004404WS02004405        0.01      0.01      0.01      6.30         0.01
  WS02003072WS02003073        0.01      0.01      0.01      5.50         0.01
  YS02001759YS02001757        5.72      5.72      5.88      0.01         0.01
  YS02001762YS02001759        5.67      5.67      5.72      0.01         0.01
  YS02001765YS02001762        5.62      5.62      5.67      0.01         0.01
  YS02001770YS02001767        5.58      5.58      5.58      0.01         0.58
  YS02001774YS02001770        5.54      5.54      5.66      0.01         0.01
  YS02001779YS02001774        5.25      5.25      5.66      0.01         0.01
  YS02001649YS02001757        5.69      5.69      5.88      0.01         0.01
  YS02001767YS02001765        5.58      5.58      5.62      0.01         0.01
  YS02001783YS02001784        0.01      0.01      0.01      0.01         0.01
  YS02001784YS02001785        0.01      0.01      0.01      0.53         0.01
  YS02001788YS02001790        0.01      0.01      0.55      0.01         0.01
  YS02001790YS02001791        0.55      0.55      0.68      0.01         0.01
  YS02001791YS02001793        0.68      0.68      0.99      0.01         0.01
  YS02001786YS02001788        0.01      0.01      0.01      0.04         0.01
  YS02001629YS02163301        5.53      5.53      5.56      0.01         0.01
  YS02001619YS02001622        4.93      4.93      5.02      0.01         0.01
  YS02001622YS02001625        5.02      5.02      5.45      0.01         0.01
  YS02001625YS02001629        4.96      4.96      5.45      0.01         0.01
  YS02163301YS02001633        5.56      5.56      5.63      0.01         0.01
  YS02163601YS02164001        5.62      5.62      5.68      0.01         0.01
  YS02164001YS02001641        5.62      5.62      5.64      0.01         0.01
  YS02001641YS02001644        5.64      5.64      5.65      0.01         0.93
  YS02001647YS02001649        5.42      5.42      5.69      0.01         0.01
  YS02001907YS02006553        0.62      0.62      0.95      0.01         0.01
  YS02006558YS02006561        0.01      0.01      0.01      0.32         0.01
  YS02001633YS02163601        5.60      5.60      5.68      0.01         0.01
  YS02001644YS02001647        5.42      5.42      5.65      0.01         0.01
  YS02001745YS02001748        0.01      0.01      3.86      0.01         0.01
  YS02001748YS02001751        4.25      4.25      5.02      0.01         0.01
  YS02001751YS02001754        5.02      5.02      5.32      0.01         0.01
  YS02001754YS02001757        5.41      5.41      5.88      0.01         0.01
  YS02001652YS02001649        5.44      5.44      5.69      0.01         0.01
  YS02001655YS02001652        5.06      5.06      5.39      0.01         0.01
  YS02001658YS02001655        3.95      3.95      5.06      0.01         0.01
  YS02001661YS02001658        0.01      0.01      3.95      0.01         0.01
  YS02001664YS02001661        0.01      0.01      0.14      0.01         0.01
  HS02004881HS02006253        0.01      0.01      1.07      0.01         0.01
  YS02001793JiankangQianchi        0.91      0.91      3.54      0.01         0.01
  YS02001757CaochengTiaoxuchi        4.55      4.55      5.88      0.01         0.01
  
  
  ***************
  Pumping Summary
  ***************
  
  ---------------------------------------------------------------------------------------------------------
                                                  Min       Avg       Max     Total     Power    % Time Off
                        Percent   Number of      Flow      Flow      Flow    Volume     Usage    Pump Curve
  Pump                 Utilized   Start-Ups       LPS       LPS       LPS  10^6 ltr     Kw-hr    Low   High
  ---------------------------------------------------------------------------------------------------------
  CC-Pump-1               58.33           1      0.00    191.08    200.00     3.180      4.26    0.0    0.0
  CC-Pump-2               45.82           6      0.00    103.90    200.00     1.740      2.88    0.0    0.0
  JK-Pump-1               56.24           6      0.00    164.28    300.00     2.701     50.20    0.0    0.0
  JK-Pump-2               43.74           5      0.00    235.13    683.00     3.255     59.32    0.0   96.4
  XR-Pump-1               87.50           4      0.00     89.88     95.00     2.223     40.40    0.0    0.0
  XR-Pump-2               87.50           4      0.00     89.88     95.00     2.223     40.40    0.0    0.0
  XR-Pump-3               87.50           5      0.00     84.96     95.00     2.109     37.69    0.0    0.0
  XR-Pump-4               87.50           5      0.00     84.96     95.00     2.109     37.69    0.0    0.0
  
  
  ***************************
  Link Pollutant Load Summary
  ***************************
  
  ------------------------------------------------------------------------------------------
                                 COD            SS            TN            TP         NH4-N
  Link                            kg            kg            kg            kg            kg
  ------------------------------------------------------------------------------------------
  WS02003066WSF200           524.433       892.076        17.016         1.607         9.313
  WS02006287WS02006284       132.143       226.507         6.865         0.771         4.052
  WS02006284WS02006280       132.637       227.298         6.913         0.777         4.082
  WS02006280WS02006229       132.613       227.257         6.911         0.777         4.080
  WS02006229WS02006228       532.712       906.176        16.642         1.540         9.032
  WS02006256WS02006235        98.493       165.779         2.907         0.261         1.568
  WS02006253WS02006251        23.583        41.841         0.662         0.056         0.347
  WS02006252WS02006251       308.912       523.428         6.854         0.495         3.376
  WS02006251WS02006249       324.547       551.885         7.339         0.539         3.636
  WS02006249WS02006248       311.386       529.570         7.043         0.517         3.491
  WS02006248WS02006247       310.882       528.751         7.032         0.516         3.485
  WS02006247WS02006245       310.245       527.691         7.017         0.515         3.477
  WS02006245WS02006243       309.632       526.705         7.001         0.514         3.469
  WS02006243WS02006242       309.433       526.468         6.997         0.514         3.468
  WS02006242WS02006240       309.650       526.966         7.008         0.515         3.474
  WS02006240WS02006239       310.503       528.452         7.045         0.519         3.495
  WS02006239WS02006238       312.120       531.007         7.123         0.528         3.542
  WS02006238WS02006235       312.975       532.235         7.168         0.533         3.569
  WS02006235WS02006234       403.790       685.067         9.822         0.770         4.997
  WS02006234WS02006232       403.250       684.153         9.815         0.770         4.995
  WS02006232WS02006231       402.656       683.166         9.800         0.769         4.987
  WS02006231WS02006230       401.665       681.500         9.772         0.766         4.972
  WS02006230WS02006229       400.838       680.146         9.753         0.765         4.963
  WS02006228WS02006109       531.990       904.989        16.626         1.539         9.024
  WS02006116WS02004401       537.179       913.381        17.326         1.631         9.469
  WS02006115WS02006116       538.454       915.498        17.361         1.634         9.488
  WS02006113WS02006111       538.171       914.740        17.386         1.636         9.505
  WS02006112WS02006115       539.808       917.751        17.407         1.638         9.513
  WS02006111WS02006112       537.679       913.926        17.372         1.635         9.498
  WS02006110WS02006113       538.841       915.853        17.408         1.639         9.518
  WS02006109WS02006110       539.974       917.732        17.449         1.642         9.540
  WS02004411WS02004412       528.056       898.107        17.142         1.619         9.383
  WS02004401WS02004402       535.901       911.251        17.284         1.627         9.447
  WS02004413WS02003067       525.085       893.156        17.034         1.608         9.322
  WS02004412WS02004413       526.727       895.897        17.100         1.615         9.360
  WS02004410WS02004411       529.200       900.009        17.177         1.622         9.402
  WS02004409WS02004410       530.390       901.990        17.215         1.626         9.422
  WS02004407WS02004409       531.412       903.688        17.243         1.628         9.437
  WS02004406WS02004407       531.736       904.224        17.247         1.628         9.439
  WS02004405WS02004406       533.279       906.790        17.305         1.634         9.471
  WS02004404WS02004405       534.180       908.302        17.306         1.632         9.468
  WS02004403WS02004404       533.712       907.602        17.216         1.621         9.410
  WS02004402WS02004403       534.752       909.339        17.250         1.624         9.429
  WS02004139WS02001211      1459.227      2345.682       134.114        16.650        83.483
  WS02004138WS02004139      1467.315      2358.687       134.851        16.742        83.941
  WS02003067WS02003066       524.640       892.421        17.024         1.608         9.317
  WS02001213WS02003059      1489.660      2394.235       137.124        17.028        85.368
  WS02001212WS02001213      1500.731      2412.020       138.142        17.155        86.003
  WS02001211WS02001212      1503.197      2415.980       138.370        17.183        86.144
  WS02003072WS02003073      2113.120      3444.434       163.926        19.863       100.810
  WS02003069WS02003072      2118.964      3453.898       164.408        19.922       101.107
  WS02003060WS02003069      2122.083      3458.980       164.623        19.947       101.238
  WS02003059WS02003060      1485.147      2386.989       136.710        16.977        85.111
  HS02004901HS02004770         3.527         6.233         0.070         0.005         0.032
  HS02004876HS02004881        14.216        25.731         0.394         0.033         0.204
  HS02004870HS02004876        10.878        19.604         0.337         0.029         0.178
  HS02004842HS02004848         2.264         3.972         0.050         0.003         0.023
  HS02004837HS02004842         6.911        11.370         0.521         0.063         0.318
  HS02004830HS02004837        52.436        85.716         4.384         0.539         2.715
  HS02004824HS02004830        53.210        86.956         4.458         0.548         2.762
  HS02004817HS02004824        61.452       102.071         4.644         0.560         2.853
  HS02004770HS02004777        13.860        24.806         0.307         0.020         0.139
  HS02004799HS02004480        55.571        95.863         2.246         0.233         1.264
  HS02004792HS02004799        51.344        87.831         2.215         0.235         1.258
  HS02004788HS02004792        32.784        56.035         1.703         0.189         0.994
  HS02004785HS02004788        15.316        27.127         0.459         0.039         0.235
  HS02004777HS02004785        14.618        26.005         0.395         0.031         0.195
  HS02004480HS02004478        67.484       117.679         2.409         0.242         1.334
  HS02004479HS02004480        15.472        27.518         0.475         0.047         0.264
  HS02004862HS02004870         8.117        14.347         0.281         0.026         0.152
  HS02004848HS02004852         2.453         4.320         0.054         0.004         0.025
  HS02004856HS02004862         4.697         8.539         0.099         0.006         0.046
  HS02004852HS02004856         2.463         4.337         0.055         0.004         0.025
  HS02004802HS02004478        65.527       110.235         4.520         0.537         2.757
  HS02004478WS02006287       132.335       226.818         6.883         0.773         4.063
  HS02004817HS02004807        60.115        99.938         4.512         0.543         2.770
  HS02004807HS02004802        65.746       110.582         4.552         0.541         2.778
  YS02001759YS02001757       170.406       291.170         3.732         0.260         1.849
  YS02001762YS02001759        89.311       153.763         2.147         0.155         1.086
  YS02001765YS02001762        89.168       153.507         2.166         0.158         1.098
  YS02001770YS02001767        86.894       149.870         1.866         0.118         0.907
  YS02001774YS02001770         3.547         5.866         0.093         0.007         0.048
  YS02001779YS02001774         2.504         4.053         0.139         0.015         0.082
  YS02001649YS02001757       224.454       371.647         4.777         0.343         2.293
  YS02001767YS02001765        89.330       153.778         2.181         0.159         1.107
  YS02006561YS02001783       348.998       591.393         8.975         0.742         4.683
  YS02001783YS02001784       348.908       591.253         8.971         0.742         4.681
  YS02001784YS02001785       356.436       603.312         9.700         0.833         5.137
  YS02001788YS02001790       357.114       604.411         9.775         0.843         5.185
  YS02001790YS02001791       358.231       606.220         9.881         0.856         5.251
  YS02001791YS02001793       358.165       606.113         9.877         0.855         5.248
  YS02001910YS02001907       121.089       202.255         4.208         0.387         2.323
  YS02001786YS02001788       356.674       603.701         9.729         0.837         5.155
  YS02001915YS02001910       121.080       202.206         4.170         0.382         2.298
  YS02001918YS02001915        61.765        99.148         2.858         0.310         1.671
  YS02001923YS02001920        41.327        66.467         0.870         0.061         0.428
  YS02001926YS02001923        40.958        65.876         0.831         0.056         0.403
  YS02001929YS02001926        40.688        65.432         0.798         0.052         0.382
  YS02001920YS02001918        61.683        99.043         2.830         0.306         1.653
  YS02001629YS02163301        44.907        74.620         0.993         0.062         0.459
  YS02001619YS02001622        48.325        79.939         1.074         0.067         0.496
  YS02001622YS02001625        47.478        78.666         1.053         0.065         0.486
  YS02001625YS02001629        46.361        77.018         1.025         0.064         0.473
  YS02163301YS02001633        44.598        74.116         0.986         0.062         0.457
  YS02163601YS02164001       126.733       209.244         2.714         0.191         1.306
  YS02164001YS02001641       126.276       208.498         2.695         0.189         1.295
  YS02001641YS02001644       126.356       208.583         2.690         0.189         1.292
  YS02001647YS02001649       180.431       297.236         3.711         0.261         1.777
  YS02006553YS02006556       252.658       426.853         6.782         0.582         3.593
  YS02006556YS02006558       252.575       426.688         6.753         0.578         3.574
  YSB6556YSB1171               8.433        15.126         0.209         0.019         0.111
  YS02001907YS02006553       252.663       426.891         6.786         0.582         3.596
  YS02006558YS02006561       349.006       591.401         8.974         0.742         4.683
  YS02001633YS02163601       127.275       210.032         2.692         0.187         1.288
  YS02001644YS02001647       182.029       299.692         3.738         0.263         1.789
  YS02001745YS02001748        71.525       121.160         1.827         0.132         0.931
  YS02001748YS02001751        71.255       120.575         1.916         0.146         0.991
  YS02001751YS02001754        70.605       119.511         1.935         0.150         1.007
  YS02001754YS02001757        71.539       120.997         2.103         0.172         1.115
  YS02001882YS02001884         0.742         1.176         0.018         0.001         0.009
  YS02001884YS02001887         2.749         4.534         0.061         0.005         0.031
  YS02001890YS02001895       133.025       226.794         2.630         0.200         1.302
  YS02001895YS02001898       132.876       226.577         2.624         0.200         1.299
  YS02001898YS02001901       132.764       226.415         2.621         0.199         1.297
  YS02001901YS02001904       132.631       226.235         2.624         0.200         1.300
  YS02001904YS02001907       132.842       226.612         2.665         0.205         1.326
  YS02001887YS02001890       133.815       228.008         2.684         0.207         1.335
  YS02001652YS02001649        47.052        79.073         1.124         0.085         0.540
  YS02001655YS02001652        47.569        79.900         1.139         0.087         0.548
  YS02001658YS02001655        46.425        78.064         0.990         0.067         0.453
  YS02001661YS02001658        52.535        88.634         1.115         0.076         0.510
  YS02001664YS02001661        62.332       103.927         1.343         0.091         0.612
  YSB1154YSB6556               8.029        14.484         0.162         0.013         0.082
  YSB1174YSB1171               5.543         9.996         0.133         0.012         0.070
  YSB1171HS02004479           15.431        27.450         0.480         0.048         0.267
  HS02004881HS02006253        15.976        29.040         0.418         0.033         0.214
  YS02001793JiankangQianchi       359.027       607.498         9.917         0.860         5.272
  YS02001757CaochengTiaoxuchi       455.348       766.957        10.184         0.735         5.020
  WSF200WS02003060           524.263       891.804        17.016         1.607         9.314
  1                         2119.301      3454.274       164.634        19.953       101.257
  CC-Pump-1                  199.712       338.429         4.428         0.320         2.181
  CC-Pump-2                  109.230       185.049         2.427         0.176         1.196
  JK-Pump-1                   95.745       161.027         2.828         0.254         1.525
  JK-Pump-2                  142.808       243.259         3.733         0.314         1.960
  XR-Pump-1                  379.668       610.282        34.909         4.334        21.731
  XR-Pump-2                  379.668       610.282        34.909         4.334        21.731
  XR-Pump-3                  356.112       572.472        32.712         4.061        20.361
  XR-Pump-4                  356.112       572.472        32.712         4.061        20.361
  

  Analysis begun on:  Sat Jul 10 16:33:26 2021
  Analysis ended on:  Sat Jul 10 16:33:29 2021
  Total elapsed time: 00:00:03