
  EPA STORM WATER MANAGEMENT MODEL - VERSION 5.1 (Build 5.3.0.dev0)
  --------------------------------------------------------------

  WARNING 04: minimum elevation drop used for Conduit WS02004404WS02004405
  WARNING 03: negative offset ignored for Link YS02001904YS02001907
  
  *********************************************************
  NOTE: The summary statistics displayed in this report are
  based on results found at every computational time step,  
  not just on results from each reporting time step.
  *********************************************************
  
  ****************
  Analysis Options
  ****************
  Flow Units ............... LPS
  Process Models:
    Rainfall/Runoff ........ YES
    RDII ................... NO
    Snowmelt ............... NO
    Groundwater ............ NO
    Flow Routing ........... YES
    Ponding Allowed ........ NO
    Water Quality .......... YES
  Infiltration Method ...... HORTON
  Flow Routing Method ...... DYNWAVE
  Surcharge Method ......... EXTRAN
  Starting Date ............ 08/28/2015 08:00:00
  Ending Date .............. 08/28/2015 15:50:00
  Antecedent Dry Days ...... 8.0
  Report Time Step ......... 00:01:00
  Wet Time Step ............ 00:01:00
  Dry Time Step ............ 00:01:00
  Routing Time Step ........ 5.00 sec
  Variable Time Step ....... YES
  Maximum Trials ........... 8
  Number of Threads ........ 4
  Head Tolerance ........... 0.001500 m
  
  
  **************************        Volume         Depth
  Runoff Quantity Continuity     hectare-m            mm
  **************************     ---------       -------
  Total Precipitation ......         2.372         5.192
  Evaporation Loss .........         0.000         0.000
  Infiltration Loss ........         0.524         1.148
  Surface Runoff ...........         1.347         2.949
  Final Storage ............         0.501         1.096
  Continuity Error (%) .....        -0.022
  
  
  **************************           COD            SS            TN            TP         NH4-N
  Runoff Quality Continuity             kg            kg            kg            kg            kg
  **************************    ----------    ----------    ----------    ----------    ----------
  Initial Buildup ..........     41378.656     70582.865      1804.177       168.684      1032.807
  Surface Buildup ..........        14.108        17.594         2.944         0.272         1.743
  Wet Deposition ...........         0.000         0.000         0.000         0.000         0.000
  Sweeping Removal .........         0.000         0.000         0.000         0.000         0.000
  Infiltration Loss ........        23.108        40.046         0.463         0.031         0.217
  BMP Removal ..............         0.000         0.000         0.000         0.000         0.000
  Surface Runoff ...........       760.789      1281.195        15.550         1.002         7.321
  Remaining Buildup ........     40608.624     69278.813      1791.102       167.923      1027.010
  Continuity Error (%) .....         0.001         0.001         0.000         0.000         0.000
  
  
  **************************        Volume        Volume
  Flow Routing Continuity        hectare-m      10^6 ltr
  **************************     ---------     ---------
  Dry Weather Inflow .......         0.616         6.165
  Wet Weather Inflow .......         1.347        13.465
  Groundwater Inflow .......         0.000         0.000
  RDII Inflow ..............         0.000         0.000
  External Inflow ..........         0.102         1.024
  External Outflow .........         1.172        11.724
  Flooding Loss ............         0.334         3.336
  Evaporation Loss .........         0.000         0.000
  Exfiltration Loss ........         0.000         0.000
  Initial Stored Volume ....         0.076         0.761
  Final Stored Volume ......         0.633         6.326
  Continuity Error (%) .....         0.135
  
  
  **************************           COD            SS            TN            TP         NH4-N
  Quality Routing Continuity            kg            kg            kg            kg            kg
  **************************    ----------    ----------    ----------    ----------    ----------
  Dry Weather Inflow .......      1541.201      2465.922       147.955        18.494        92.472
  Wet Weather Inflow .......       760.605      1280.924        15.545         1.002         7.319
  Groundwater Inflow .......         0.000         0.000         0.000         0.000         0.000
  RDII Inflow ..............         0.000         0.000         0.000         0.000         0.000
  External Inflow ..........       183.418       293.469        17.608         2.201        11.005
  External Outflow .........      1715.932      2786.671       142.209        17.418        87.942
  Flooding Loss ............       215.827       348.937         9.004         0.927         5.134
  Exfiltration Loss ........         0.000         0.000         0.000         0.000         0.000
  Mass Reacted .............         0.000         0.000         0.000         0.000         0.000
  Initial Stored Mass ......         0.000         0.000         0.000         0.000         0.000
  Final Stored Mass ........       542.864       888.158        29.279         3.284        17.354
  Continuity Error (%) .....         0.427         0.410         0.341         0.317         0.330
  
  
  *************************
  Highest Continuity Errors
  *************************
  Node YS02001774 (47.70%)
  Node HS02004842 (26.21%)
  Node YS02001884 (20.72%)
  Node YSB1171 (6.26%)
  Node YS02001625 (5.08%)
  
  
  ***************************
  Time-Step Critical Elements
  ***************************
  Link WS02006238WS02006235 (39.57%)
  Link WS02006280WS02006229 (27.01%)
  Link WS02003066WSF200 (11.58%)
  Link YS02001791YS02001793 (3.35%)
  Link WS02006229WS02006228 (1.41%)
  
  
  ********************************
  Highest Flow Instability Indexes
  ********************************
  Link WS02006113WS02006111 (57)
  Link YS02006558YS02006561 (13)
  Link WS02006111WS02006112 (13)
  Link WS02006256WS02006235 (10)
  Link YS02001793JiankangQianchi (8)
  
  
  *************************
  Routing Time Step Summary
  *************************
  Minimum Time Step           :     0.50 sec
  Average Time Step           :     3.21 sec
  Maximum Time Step           :     5.00 sec
  Percent in Steady State     :     0.00
  Average Iterations per Step :     2.56
  Percent Not Converging      :     4.62
  
  
  ***************************
  Subcatchment Runoff Summary
  ***************************
  
  ------------------------------------------------------------------------------------------------------------------------------
                            Total      Total      Total      Total     Imperv       Perv      Total       Total     Peak  Runoff
                           Precip      Runon       Evap      Infil     Runoff     Runoff     Runoff      Runoff   Runoff   Coeff
  Subcatchment                 mm         mm         mm         mm         mm         mm         mm    10^6 ltr      LPS
  ------------------------------------------------------------------------------------------------------------------------------
  sub0                       5.19       0.00       0.00       0.36       4.78       0.00       4.78        0.00     1.48   0.921
  sub1                       5.19       0.00       0.00       0.57       4.53       0.00       4.53        0.03     8.53   0.873
  sub2                       5.19       0.00       0.00       1.92       3.19       0.00       3.19        0.03     7.64   0.615
  sub3                       5.19       0.00       0.00       1.92       3.16       0.00       3.16        0.07    15.89   0.608
  sub4                       5.19       0.00       0.00       0.57       4.40       0.00       4.40        0.09    17.93   0.847
  sub5                       5.19       0.00       0.00       0.36       4.74       0.00       4.74        0.05    15.18   0.913
  sub7                       5.19       0.00       0.00       0.47       4.66       0.00       4.66        0.02     5.17   0.898
  sub8                       5.19       0.00       0.00       0.47       4.66       0.00       4.66        0.03     9.26   0.897
  sub9                       5.19       0.00       0.00       0.47       4.65       0.00       4.65        0.02     6.89   0.896
  sub10                      5.19       0.00       0.00       0.42       4.69       0.00       4.69        0.05    15.07   0.904
  sub11                      5.19       0.00       0.00       0.42       4.71       0.00       4.71        0.05    17.35   0.907
  sub12                      5.19       0.00       0.00       0.67       4.47       0.00       4.47        0.04    14.06   0.861
  sub14                      5.19       0.00       0.00       0.47       4.65       0.00       4.65        0.04    13.49   0.896
  sub15                      5.19       0.00       0.00       1.56       3.58       0.00       3.58        0.06    18.38   0.689
  sub16                      5.19       0.00       0.00       1.71       3.44       0.00       3.44        0.04    12.53   0.662
  sub17                      5.19       0.00       0.00       1.66       3.49       0.00       3.49        0.03    10.21   0.672
  sub22                      5.19       0.00       0.00       2.23       2.92       0.00       2.92        0.18    59.19   0.562
  sub23                      5.19       0.00       0.00       1.92       3.23       0.00       3.23        0.15    50.18   0.622
  sub60                      5.19       0.00       0.00       0.62       3.24       0.00       3.24        0.98    89.56   0.623
  sub61                      5.19       0.00       0.00       0.88       3.43       0.00       3.43        1.06   113.28   0.661
  sub62                      5.19       0.00       0.00       0.42       3.69       0.00       3.69        1.13   115.50   0.711
  sub63                      5.19       0.00       0.00       1.51       3.05       0.00       3.05        0.92   106.06   0.587
  sub64                      5.19       0.00       0.00       0.78       3.09       0.00       3.09        0.94    85.02   0.596
  sub65                      5.19       0.00       0.00       0.67       3.14       0.00       3.14        0.96    86.23   0.604
  sub66                      5.19       0.00       0.00       1.51       2.69       0.00       2.69        0.83    78.12   0.519
  sub67                      5.19       0.00       0.00       0.42       4.03       0.00       4.03        1.24   149.33   0.776
  sub68                      5.19       0.00       0.00       0.73       3.65       0.00       3.65        1.12   125.50   0.702
  sub69                      5.19       0.00       0.00       0.78       3.91       0.00       3.91        0.91   125.52   0.753
  sub70                      5.19       3.99       0.00       3.12       4.88       0.00       4.88        1.12   101.47   0.531
  sub71                      5.19       0.00       0.00       0.42       3.54       0.00       3.54        0.84    80.38   0.682
  sub72                      5.19       0.00       0.00       0.36       2.54       0.00       2.54        0.52    38.30   0.489
  1                          5.19       4.75       0.00       1.32       5.02       0.74       5.76        1.35    97.03   0.580
  2                          5.19       0.00       0.00       2.91       1.18       0.24       1.42        0.57    76.81   0.273
  
  
  ****************************
  Subcatchment Washoff Summary
  ****************************
  
  ------------------------------------------------------------------------------------------
                                 COD            SS            TN            TP         NH4-N
  Subcatchment                    kg            kg            kg            kg            kg
  ------------------------------------------------------------------------------------------
  sub0                         0.744         1.376         0.012         0.001         0.006
  sub1                         3.009         5.620         0.057         0.004         0.027
  sub2                         1.716         3.082         0.039         0.002         0.017
  sub3                         4.128         7.304         0.091         0.006         0.041
  sub4                         6.556        12.124         0.136         0.008         0.065
  sub5                         6.914        12.755         0.121         0.009         0.058
  sub7                         1.607         3.068         0.030         0.002         0.015
  sub8                         2.428         4.724         0.050         0.003         0.024
  sub9                         2.051         3.936         0.040         0.002         0.019
  sub10                        5.759        10.773         0.105         0.007         0.051
  sub11                        5.748        10.918         0.108         0.007         0.052
  sub12                        4.810         8.996         0.086         0.006         0.041
  sub14                        4.344         8.258         0.083         0.005         0.040
  sub15                        5.059         9.153         0.100         0.007         0.046
  sub16                        3.230         5.858         0.063         0.005         0.029
  sub17                        2.951         5.301         0.055         0.004         0.026
  sub22                       14.894        26.378         0.291         0.021         0.134
  sub23                        9.231        16.984         0.207         0.013         0.094
  sub60                       48.900        81.647         1.052         0.060         0.502
  sub61                       62.239       103.708         1.217         0.078         0.583
  sub62                       65.728       111.531         1.369         0.081         0.654
  sub63                       46.826        77.122         1.022         0.068         0.465
  sub64                       57.803        92.843         1.117         0.078         0.528
  sub65                       59.271        95.619         1.155         0.078         0.548
  sub66                       35.156        57.158         0.796         0.049         0.366
  sub67                       98.938       166.904         1.808         0.127         0.869
  sub68                       70.255       118.579         1.422         0.090         0.674
  sub69                       66.301       113.908         1.294         0.086         0.613
  sub70                       99.624       170.693         2.117         0.139         0.975
  sub71                       43.522        74.411         0.972         0.052         0.463
  sub72                       27.896        43.916         0.555         0.036         0.266
  1                           51.128        88.293         1.127         0.075         0.511
  2                            7.950        12.855         0.264         0.016         0.110
  ------------------------------------------------------------------------------------------
  System                     926.714      1565.796        18.961         1.228         8.910
  
  
  ******************
  Node Depth Summary
  ******************
  
  ---------------------------------------------------------------------------------
                                 Average  Maximum  Maximum  Time of Max    Reported
                                   Depth    Depth      HGL   Occurrence   Max Depth
  Node                 Type       Meters   Meters   Meters  days hr:min      Meters
  ---------------------------------------------------------------------------------
  WS02001211           JUNCTION     0.67     0.71     5.55     0  02:39        0.71
  WS02001212           JUNCTION     0.39     0.44     5.50     0  02:38        0.44
  WS02001213           JUNCTION     0.59     0.69     5.45     0  02:37        0.69
  WS02003069           JUNCTION     0.38     0.52     5.11     0  02:37        0.52
  WS02003072           JUNCTION     0.44     0.59     4.96     0  02:37        0.59
  WS02003073           JUNCTION     0.26     0.36     4.42     0  02:38        0.36
  WS02003060           JUNCTION     0.34     0.46     5.39     0  02:36        0.46
  WS02003066           JUNCTION     0.16     0.28     5.84     0  02:34        0.28
  WS02003059           JUNCTION     0.65     0.75     5.43     0  02:37        0.75
  WS02003067           JUNCTION     0.41     0.68     6.00     0  02:34        0.68
  WS02004401           JUNCTION     0.50     0.80     6.80     0  02:29        0.80
  WS02004402           JUNCTION     0.53     0.83     6.79     0  02:29        0.83
  WS02004403           JUNCTION     0.55     0.85     6.78     0  02:29        0.85
  WS02004404           JUNCTION     0.62     0.92     6.77     0  02:29        0.92
  WS02004406           JUNCTION     0.63     0.92     6.75     0  02:30        0.92
  WS02004409           JUNCTION     0.32     0.62     6.39     0  02:33        0.62
  WS02004410           JUNCTION     0.34     0.64     6.36     0  02:33        0.64
  WS02004411           JUNCTION     0.36     0.65     6.33     0  02:33        0.65
  WS02004412           JUNCTION     0.37     0.66     6.30     0  02:33        0.66
  WS02004413           JUNCTION     0.50     0.82     6.29     0  02:34        0.82
  WS02004405           JUNCTION     0.62     0.92     6.77     0  02:29        0.92
  WS02006109           JUNCTION     0.59     0.90     7.52     0  02:24        0.90
  WS02006110           JUNCTION     0.60     0.87     7.46     0  02:24        0.87
  WS02006111           JUNCTION     0.15     0.27     6.98     0  02:28        0.27
  WS02006112           JUNCTION     0.65     0.99     6.87     0  02:28        0.99
  WS02006113           JUNCTION     0.23     0.42     7.32     0  02:26        0.42
  WS02006115           JUNCTION     0.40     0.70     6.84     0  02:30        0.70
  WS02006116           JUNCTION     0.47     0.78     6.82     0  02:30        0.78
  WS02006230           JUNCTION     0.51     0.90     7.64     0  02:25        0.90
  WS02006231           JUNCTION     0.29     0.57     7.69     0  02:28        0.57
  WS02006232           JUNCTION     0.39     0.69     7.73     0  02:28        0.69
  WS02006234           JUNCTION     0.30     0.60     7.75     0  02:27        0.60
  WS02006235           JUNCTION     0.33     0.62     7.78     0  02:30        0.62
  WS02006238           JUNCTION     0.34     0.64     7.78     0  02:30        0.64
  WS02006240           JUNCTION     0.23     0.49     7.78     0  02:29        0.49
  WS02006242           JUNCTION     0.26     0.52     7.78     0  02:29        0.51
  WS02006243           JUNCTION     0.15     0.37     7.79     0  02:30        0.37
  WS02006245           JUNCTION     0.12     0.30     7.79     0  02:29        0.30
  WS02006247           JUNCTION     0.12     0.29     7.79     0  02:29        0.29
  WS02006248           JUNCTION     0.07     0.21     7.79     0  02:30        0.21
  WS02006249           JUNCTION     0.09     0.21     7.81     0  02:29        0.21
  WS02006239           JUNCTION     0.29     0.57     7.78     0  02:30        0.57
  WS02006251           JUNCTION     0.06     0.18     7.85     0  02:13        0.18
  WS02006252           JUNCTION     0.00     0.00     8.24     0  00:00        0.00
  WS02006253           JUNCTION     0.10     0.24     7.88     0  02:13        0.24
  WS02006256           JUNCTION     1.34     2.35     9.28     0  02:13        2.35
  WS02004138           JUNCTION     0.16     0.17     7.42     0  07:25        0.17
  WS02004139           JUNCTION     0.61     0.66     5.57     0  02:39        0.66
  WS02004407           JUNCTION     0.15     0.28     6.59     0  02:30        0.28
  WS02006228           JUNCTION     0.57     0.92     7.57     0  02:24        0.92
  WS02006229           JUNCTION     0.54     0.91     7.61     0  02:24        0.91
  WS02006280           JUNCTION     0.06     0.15     8.42     0  02:13        0.15
  WS02006284           JUNCTION     0.35     0.49     8.89     0  02:13        0.49
  WS02006287           JUNCTION     0.08     0.23     9.18     0  02:13        0.23
  WSF200               JUNCTION     0.14     0.29     5.52     0  02:33        0.29
  HS02004901           JUNCTION     0.11     0.24    10.06     0  02:11        0.24
  HS02004881           JUNCTION     0.01     0.03     9.06     0  02:12        0.03
  HS02004876           JUNCTION     0.04     0.10     9.13     0  02:10        0.10
  HS02004870           JUNCTION     0.01     0.04     9.33     0  02:13        0.04
  HS02004862           JUNCTION     0.02     0.05     9.44     0  02:14        0.05
  HS02004856           JUNCTION     0.07     0.11     9.53     0  02:13        0.11
  HS02004852           JUNCTION     0.01     0.03     9.54     0  02:14        0.03
  HS02004848           JUNCTION     0.01     0.03     9.63     0  02:12        0.03
  HS02004842           JUNCTION     0.33     0.36     9.63     0  02:12        0.36
  HS02004837           JUNCTION     0.03     0.05     9.63     0  02:12        0.05
  HS02004830           JUNCTION     0.04     0.06     9.53     0  02:13        0.06
  HS02004824           JUNCTION     0.02     0.04     9.45     0  02:15        0.04
  HS02004817           JUNCTION     0.42     0.54     9.38     0  02:13        0.54
  HS02004807           JUNCTION     0.11     0.21     9.38     0  02:13        0.21
  HS02004802           JUNCTION     0.15     0.25     9.38     0  02:13        0.25
  HS02004799           JUNCTION     0.11     0.27     9.48     0  02:11        0.27
  HS02004792           JUNCTION     0.03     0.11     9.63     0  02:11        0.11
  HS02004788           JUNCTION     0.02     0.08     9.98     0  02:11        0.08
  HS02004785           JUNCTION     0.04     0.14    10.04     0  02:11        0.14
  HS02004777           JUNCTION     0.13     0.26    10.06     0  02:11        0.26
  HS02004770           JUNCTION     0.10     0.23    10.06     0  02:11        0.23
  HS02004480           JUNCTION     0.07     0.21     9.45     0  02:11        0.21
  HS02004479           JUNCTION     0.11     0.25     9.45     0  02:12        0.25
  HS02004478           JUNCTION     0.05     0.14     9.36     0  02:13        0.14
  YS02001745           JUNCTION     0.47     0.85     8.37     0  04:37        0.85
  YS02001748           JUNCTION     0.78     1.29     8.37     0  04:37        1.29
  YS02001751           JUNCTION     0.94     1.49     8.37     0  04:37        1.49
  YS02001754           JUNCTION     1.16     1.76     8.37     0  04:37        1.76
  YS02001762           JUNCTION     1.33     1.97     8.37     0  04:37        1.97
  YS02001765           JUNCTION     1.29     1.92     8.37     0  04:37        1.92
  YS02001767           JUNCTION     1.26     1.88     8.37     0  04:37        1.88
  YS02001770           JUNCTION     1.25     1.87     8.37     0  04:34        1.87
  YS02001774           JUNCTION     1.32     1.94     8.37     0  04:34        1.94
  YS02001779           JUNCTION     1.09     1.68     8.37     0  04:33        1.68
  YS02001882           JUNCTION     0.28     0.50     7.21     0  02:35        0.50
  YS02001884           JUNCTION     0.37     0.60     7.21     0  02:39        0.60
  YS02001759           JUNCTION     1.36     2.00     8.37     0  04:37        2.00
  YS02001887           JUNCTION     0.45     0.68     7.21     0  02:39        0.68
  YS02001890           JUNCTION     0.48     0.71     7.21     0  02:40        0.71
  YS02001898           JUNCTION     0.25     0.46     7.20     0  02:50        0.46
  YS02001901           JUNCTION     0.36     0.59     7.20     0  02:50        0.59
  YS02001904           JUNCTION     0.34     0.56     7.19     0  02:50        0.56
  YS02001907           JUNCTION     0.66     0.91     7.20     0  02:49        0.91
  YS02001910           JUNCTION     0.45     0.69     7.20     0  02:50        0.69
  YS02001915           JUNCTION     0.27     0.48     7.19     0  02:49        0.48
  YS02001918           JUNCTION     0.08     0.13     7.19     0  02:42        0.13
  YS02001619           JUNCTION     0.90     1.43     8.36     0  04:25        1.43
  YS02001629           JUNCTION     1.21     1.81     8.36     0  04:25        1.81
  YS02001641           JUNCTION     1.31     1.92     8.35     0  04:25        1.92
  YS02001644           JUNCTION     1.31     1.92     8.35     0  04:23        1.92
  YS02001652           JUNCTION     1.17     1.77     8.36     0  04:37        1.77
  YS02001655           JUNCTION     0.96     1.51     8.36     0  04:37        1.51
  YS02001920           JUNCTION     0.17     0.22     7.23     0  02:57        0.22
  YS02001923           JUNCTION     0.06     0.09     7.35     0  03:01        0.09
  YS02001926           JUNCTION     0.14     0.19     7.63     0  03:01        0.19
  YS02001929           JUNCTION     0.06     0.09     7.79     0  03:01        0.09
  YS02001658           JUNCTION     0.73     1.22     8.36     0  04:37        1.22
  YS02001661           JUNCTION     0.56     0.96     8.36     0  04:37        0.96
  YS02001664           JUNCTION     0.24     0.44     8.36     0  04:37        0.44
  YS02001622           JUNCTION     0.92     1.46     8.36     0  04:25        1.45
  YS02001633           JUNCTION     1.29     1.90     8.36     0  04:25        1.90
  YS02001649           JUNCTION     1.34     1.97     8.36     0  04:37        1.97
  YS02001757           JUNCTION     1.46     2.10     8.37     0  04:37        2.10
  YS02001895           JUNCTION     0.25     0.46     7.20     0  02:40        0.46
  YS02001625           JUNCTION     1.17     1.76     8.36     0  04:25        1.75
  YS02163301           JUNCTION     1.23     1.84     8.36     0  04:25        1.84
  YS02163601           JUNCTION     1.34     1.96     8.36     0  04:25        1.96
  YS02164001           JUNCTION     1.29     1.90     8.36     0  04:25        1.90
  YS02001647           JUNCTION     1.15     1.75     8.36     0  04:37        1.75
  YSB1154              JUNCTION     0.24     0.40     9.46     0  02:12        0.40
  YSB6556              JUNCTION     0.14     0.29     9.45     0  02:11        0.29
  YSB1174              JUNCTION     0.19     0.35     9.45     0  02:11        0.35
  YSB1171              JUNCTION     0.39     0.55     9.45     0  02:12        0.55
  YS02006553           JUNCTION     0.66     0.91     7.19     0  02:48        0.91
  YS02006561           JUNCTION     0.14     0.25     6.91     0  02:50        0.25
  YS02006556           JUNCTION     0.64     0.88     7.19     0  02:50        0.88
  YS02006558           JUNCTION     0.68     0.92     7.19     0  02:48        0.92
  YS02001783           JUNCTION     0.24     0.44     6.59     0  02:42        0.44
  YS02001784           JUNCTION     0.27     0.47     6.54     0  02:42        0.47
  YS02001786           JUNCTION     0.23     0.40     6.43     0  02:42        0.40
  YS02001788           JUNCTION     0.17     0.30     6.28     0  02:43        0.30
  YS02001790           JUNCTION     0.20     0.37     6.01     0  02:43        0.37
  YS02001791           JUNCTION     0.13     0.22     5.69     0  02:43        0.22
  YS02001793           JUNCTION     0.26     0.93     5.77     0  02:52        0.91
  WSC                  OUTFALL      0.26     0.36     1.03     0  02:38        0.36
  JK-storage           STORAGE      3.97     4.88     5.68     0  02:47        4.86
  CC-storage           STORAGE      0.79     1.38     8.38     0  04:33        1.38
  XR-storage           STORAGE      7.20     7.72     5.72     0  02:35        7.72
  
  
  *******************
  Node Inflow Summary
  *******************
  
  -------------------------------------------------------------------------------------------------
                                  Maximum  Maximum                  Lateral       Total        Flow
                                  Lateral    Total  Time of Max      Inflow      Inflow     Balance
                                   Inflow   Inflow   Occurrence      Volume      Volume       Error
  Node                 Type           LPS      LPS  days hr:min    10^6 ltr    10^6 ltr     Percent
  -------------------------------------------------------------------------------------------------
  WS02001211           JUNCTION      7.35   294.56     0  07:26       0.207        7.25       0.525
  WS02001212           JUNCTION      0.00   294.67     0  04:20           0        7.21       0.269
  WS02001213           JUNCTION      0.00   295.76     0  04:19           0        7.19       0.300
  WS02003069           JUNCTION      0.32   779.95     0  02:36     0.00902        11.8       0.186
  WS02003072           JUNCTION      0.00   779.93     0  02:37           0        11.7       0.239
  WS02003073           JUNCTION      1.82   781.75     0  02:37      0.0514        11.8       0.256
  WS02003060           JUNCTION     16.53   779.62     0  02:36       0.466        11.8       0.180
  WS02003066           JUNCTION      0.00   473.65     0  02:34           0        4.17       0.060
  WS02003059           JUNCTION      0.00   297.93     0  04:19           0        7.18       0.525
  WS02003067           JUNCTION      0.00   473.65     0  02:34           0        4.17       0.140
  WS02004401           JUNCTION      0.00   477.47     0  02:29           0        4.33       0.340
  WS02004402           JUNCTION      0.00   476.89     0  02:28           0        4.31       0.335
  WS02004403           JUNCTION      0.00   476.73     0  02:29           0         4.3       0.316
  WS02004404           JUNCTION      0.16   476.66     0  02:29     0.00457        4.29       0.287
  WS02004406           JUNCTION      0.00   476.47     0  02:30           0        4.26       0.606
  WS02004409           JUNCTION      0.00   476.35     0  02:30           0        4.23       0.175
  WS02004410           JUNCTION      0.00   475.07     0  02:31           0        4.22       0.221
  WS02004411           JUNCTION      0.00   474.41     0  02:32           0        4.22       0.243
  WS02004412           JUNCTION      0.00   473.95     0  02:33           0        4.21       0.287
  WS02004413           JUNCTION      0.00   473.72     0  02:33           0        4.19       0.467
  WS02004405           JUNCTION      0.04   476.53     0  02:29     0.00107        4.28       0.340
  WS02006109           JUNCTION      1.23   475.26     0  02:25      0.0347        4.37       0.281
  WS02006110           JUNCTION      0.00   475.30     0  02:25           0        4.36       0.302
  WS02006111           JUNCTION      0.00   490.68     0  02:27           0        4.34       0.038
  WS02006112           JUNCTION     10.21   482.81     0  02:28      0.0299        4.37       0.438
  WS02006113           JUNCTION      0.00   475.35     0  02:25           0        4.34       0.105
  WS02006115           JUNCTION      0.00   480.19     0  02:26           0        4.35       0.281
  WS02006116           JUNCTION      0.00   478.03     0  02:28           0        4.34       0.270
  WS02006230           JUNCTION     10.28   295.32     0  02:38        0.29        3.37       0.277
  WS02006231           JUNCTION      0.00   283.91     0  02:36           0        3.07      -0.112
  WS02006232           JUNCTION      0.00   283.26     0  02:36           0        3.08       0.292
  WS02006234           JUNCTION      0.00   282.53     0  02:36           0        3.07      -0.121
  WS02006235           JUNCTION      0.00   326.06     0  02:13           0        3.43       0.200
  WS02006238           JUNCTION      0.00   233.51     0  02:13           0       0.794       0.135
  WS02006240           JUNCTION      0.00   118.73     0  02:14           0        0.53       0.400
  WS02006242           JUNCTION      0.00   101.23     0  02:15           0       0.389       0.524
  WS02006243           JUNCTION      0.00    56.14     0  02:16           0       0.277       1.632
  WS02006245           JUNCTION      0.00    47.55     0  02:16           0       0.221       1.799
  WS02006247           JUNCTION      0.00    47.41     0  02:15           0       0.189       0.245
  WS02006248           JUNCTION      0.00    47.43     0  02:14           0       0.174      -0.039
  WS02006249           JUNCTION      0.00    47.48     0  02:13           0       0.172       0.446
  WS02006239           JUNCTION      0.00   136.11     0  02:13           0       0.671       0.104
  WS02006251           JUNCTION      0.08    47.56     0  02:13     0.00217       0.171       0.032
  WS02006252           JUNCTION      0.00     0.00     0  00:00           0           0       0.000 ltr
  WS02006253           JUNCTION      1.48    47.52     0  02:12     0.00387       0.169       0.090
  WS02006256           JUNCTION      0.00   983.00     0  02:31           0        3.71      -0.302
  WS02004138           JUNCTION      0.00   285.00     0  01:57           0        7.07       0.055
  WS02004139           JUNCTION      0.32   286.02     0  07:25     0.00905        7.08       0.510
  WS02004407           JUNCTION      0.00   476.41     0  02:30           0        4.24       0.088
  WS02006228           JUNCTION      0.00   473.92     0  02:25           0        4.34       0.218
  WS02006229           JUNCTION      0.00   473.89     0  02:24           0        4.36       0.276
  WS02006280           JUNCTION      0.00   239.18     0  02:13           0           1       0.008
  WS02006284           JUNCTION      0.10   239.16     0  02:13      0.0027           1       0.115
  WS02006287           JUNCTION      0.00   239.02     0  02:13           0           1       0.071
  WSF200               JUNCTION      0.00   473.65     0  02:34           0        4.17       0.046
  HS02004901           JUNCTION     12.53    12.53     0  02:07       0.036      0.0362       5.109
  HS02004881           JUNCTION      5.17    46.30     0  02:12      0.0157       0.166       0.037
  HS02004876           JUNCTION      8.53    41.37     0  02:13      0.0301        0.15       0.351
  HS02004870           JUNCTION      9.26    33.03     0  02:13      0.0297        0.12       0.089
  HS02004862           JUNCTION      7.84    24.34     0  02:13      0.0354      0.0908       0.186
  HS02004856           JUNCTION      6.89    16.58     0  02:12      0.0224      0.0568       2.603
  HS02004852           JUNCTION      0.00    10.10     0  02:12           0      0.0345       0.146
  HS02004848           JUNCTION     15.89    15.89     0  02:15      0.0711      0.0711       0.064
  HS02004842           JUNCTION      0.00     6.26     0  02:23           0      0.0496      35.515
  HS02004837           JUNCTION     21.42    26.87     0  02:12       0.231       0.267       0.296
  HS02004830           JUNCTION      0.15    26.99     0  02:12     0.00423       0.258       0.480
  HS02004824           JUNCTION     17.98    44.81     0  02:15      0.0931        0.35       0.155
  HS02004817           JUNCTION      0.60    45.41     0  02:15      0.0169       0.366       4.768
  HS02004807           JUNCTION     17.35    61.42     0  02:14      0.0547       0.404       1.057
  HS02004802           JUNCTION      0.00    61.74     0  02:15           0         0.4       1.025
  HS02004799           JUNCTION     13.49   151.33     0  02:11      0.0443       0.529       0.449
  HS02004792           JUNCTION     59.47   138.06     0  02:10       0.192       0.485       0.086
  HS02004788           JUNCTION     20.05    80.31     0  02:11       0.109       0.294       0.131
  HS02004785           JUNCTION      0.15    60.61     0  02:11     0.00423       0.187       0.258
  HS02004777           JUNCTION      0.03    60.90     0  02:09    0.000846       0.187       2.841
  HS02004770           JUNCTION     50.18    61.83     0  02:08       0.154       0.188       1.673
  HS02004480           JUNCTION      0.00   178.54     0  02:11           0       0.618       0.119
  HS02004479           JUNCTION      0.00    27.83     0  02:13           0       0.102       0.722
  HS02004478           JUNCTION      0.00   239.02     0  02:13           0           1       0.059
  YS02001745           JUNCTION     89.56    96.79     0  03:21       0.981       0.981       1.172
  YS02001748           JUNCTION      0.04   183.67     0  03:15     0.00127       0.972       2.518
  YS02001751           JUNCTION      0.01   163.47     0  03:14     0.00031       0.948       2.614
  YS02001754           JUNCTION      0.26   121.94     0  03:17     0.00733        0.93       2.829
  YS02001762           JUNCTION      0.00   132.23     0  03:06           0        1.06       2.178
  YS02001765           JUNCTION      0.00   129.67     0  03:06           0        1.06       2.475
  YS02001767           JUNCTION      0.54   127.13     0  03:06      0.0151        1.08       3.521
  YS02001770           JUNCTION    115.65   126.97     0  02:27        1.14        1.14       3.016
  YS02001774           JUNCTION      0.00    38.27     0  02:12           0      0.0553      91.200
  YS02001779           JUNCTION      0.01    24.18     0  03:06    0.000141      0.0225     245.167
  YS02001882           JUNCTION      0.00     4.24     0  02:04           0     0.00615      39.328
  YS02001884           JUNCTION      0.00    11.83     0  02:04           0      0.0241      26.135
  YS02001759           JUNCTION    113.32   235.40     0  03:06        1.06        2.08       1.179
  YS02001887           JUNCTION    149.78   151.70     0  02:33        1.26        1.27       0.579
  YS02001890           JUNCTION      0.00   151.17     0  02:33           0        1.24       0.647
  YS02001898           JUNCTION      0.00   150.64     0  02:35           0        1.23       0.187
  YS02001901           JUNCTION      0.00   150.33     0  02:34           0        1.23       0.464
  YS02001904           JUNCTION      0.00   149.79     0  02:36           0        1.23       0.429
  YS02001907           JUNCTION      0.00   270.31     0  02:52           0        2.64       0.850
  YS02001910           JUNCTION      0.00   125.14     0  02:52           0        1.43       0.729
  YS02001915           JUNCTION     80.40   122.09     0  02:53       0.836        1.43       0.330
  YS02001918           JUNCTION      0.00    41.35     0  03:02           0       0.596       0.207
  YS02001619           JUNCTION     78.12    78.12     0  02:46       0.826       0.826       1.549
  YS02001629           JUNCTION      0.00   153.60     0  03:16           0       0.745       4.171
  YS02001641           JUNCTION      0.00   162.98     0  02:50           0         1.6       1.408
  YS02001644           JUNCTION     85.06   399.84     0  04:38       0.942        3.78       0.726
  YS02001652           JUNCTION      0.00   124.53     0  02:39           0       0.851       2.961
  YS02001655           JUNCTION      0.15   174.26     0  03:17     0.00434       0.876       2.897
  YS02001920           JUNCTION      2.87    41.21     0  03:01      0.0809       0.598       0.362
  YS02001923           JUNCTION      0.04    38.35     0  03:01     0.00106       0.517       0.064
  YS02001926           JUNCTION      0.05    38.35     0  03:01     0.00147       0.518       0.449
  YS02001929           JUNCTION     38.30    38.30     0  03:01       0.517       0.517       0.063
  YS02001658           JUNCTION      0.00   203.18     0  03:17           0       0.902       2.771
  YS02001661           JUNCTION      0.00   147.84     0  03:17           0       0.924       2.440
  YS02001664           JUNCTION    106.06   106.06     0  02:35       0.923       0.923       0.549
  YS02001622           JUNCTION      0.00   106.06     0  03:19           0       0.815       4.120
  YS02001633           JUNCTION     86.43   167.46     0  02:47       0.969        1.66       2.015
  YS02001649           JUNCTION      0.00   350.14     0  02:42           0        3.33       1.183
  YS02001757           JUNCTION      0.00   654.86     0  02:46           0        5.04       1.889
  YS02001895           JUNCTION      0.00   150.29     0  02:36           0        1.23       0.311
  YS02001625           JUNCTION      0.00   154.29     0  03:17           0       0.785       5.350
  YS02163301           JUNCTION      0.00    81.59     0  02:47           0       0.723       3.587
  YS02163601           JUNCTION      0.11   166.40     0  02:47      0.0031        1.63       1.936
  YS02164001           JUNCTION      0.00   165.09     0  02:47           0        1.61       1.390
  YS02001647           JUNCTION      0.00   275.59     0  04:39           0        2.77       1.085
  YSB1154              JUNCTION     15.18    15.18     0  02:10      0.0537      0.0549       2.705
  YSB6556              JUNCTION      0.00    15.07     0  02:12           0      0.0558       2.282
  YSB1174              JUNCTION     14.06    14.06     0  02:06      0.0391      0.0398       3.336
  YSB1171              JUNCTION      0.00    27.76     0  02:12           0       0.101       6.676
  YS02006553           JUNCTION      0.00   270.99     0  02:52           0        2.63       0.551
  YS02006561           JUNCTION      0.00   409.53     0  02:46           0        3.73       0.026
  YS02006556           JUNCTION      0.00   268.67     0  02:52           0        2.63       0.398
  YS02006558           JUNCTION    126.38   392.86     0  02:47        1.15        3.75       0.116
  YS02001783           JUNCTION      0.00   392.82     0  02:50           0        3.73       0.043
  YS02001784           JUNCTION      1.06   393.71     0  02:42      0.0299        3.75       0.071
  YS02001786           JUNCTION      0.06   393.70     0  02:42     0.00159        3.75       0.068
  YS02001788           JUNCTION      0.07   393.77     0  02:43       0.002        3.75       0.041
  YS02001790           JUNCTION      0.15   393.96     0  02:43     0.00437        3.76       0.049
  YS02001791           JUNCTION      0.00   393.91     0  02:43           0        3.75       0.022
  YS02001793           JUNCTION      0.00   905.48     0  02:25           0        3.83       0.057
  WSC                  OUTFALL       0.00   781.76     0  02:38           0        11.7       0.000
  JK-storage           STORAGE       0.00  1061.45     0  02:25           0        3.98       0.036
  CC-storage           STORAGE       0.00   655.36     0  02:45           0        3.92       1.686
  XR-storage           STORAGE     361.41   361.41     0  02:47        7.56        8.16      -0.000
  
  
  **********************
  Node Surcharge Summary
  **********************
  
  Surcharging occurs when water rises above the top of the highest conduit.
  ---------------------------------------------------------------------
                                               Max. Height   Min. Depth
                                   Hours       Above Crown    Below Rim
  Node                 Type      Surcharged         Meters       Meters
  ---------------------------------------------------------------------
  WS02006109           JUNCTION        0.59          0.080        1.740
  WS02006256           JUNCTION        5.78          2.050        0.000
  WS02006228           JUNCTION        0.57          0.093        2.107
  YS02001748           JUNCTION        3.89          0.209        0.981
  YS02001751           JUNCTION        4.41          0.487        0.713
  YS02001754           JUNCTION        4.83          0.708        0.442
  YS02001762           JUNCTION        5.39          0.966        0.184
  YS02001765           JUNCTION        5.35          0.916        0.184
  YS02001767           JUNCTION        5.30          0.877        0.153
  YS02001770           JUNCTION        5.24          0.841        0.079
  YS02001774           JUNCTION        5.38          0.944        0.106
  YS02001779           JUNCTION        4.73          0.680        0.000
  YS02001759           JUNCTION        5.43          1.002        0.208
  YS02001619           JUNCTION        4.36          0.432        0.178
  YS02001629           JUNCTION        4.35          0.431        0.039
  YS02001641           JUNCTION        5.37          0.917        0.183
  YS02001644           JUNCTION        5.37          0.920        0.000
  YS02001652           JUNCTION        4.91          0.737        0.393
  YS02001655           JUNCTION        4.47          0.513        0.687
  YS02001658           JUNCTION        3.92          0.221        1.079
  YS02001622           JUNCTION        4.38          0.457        0.163
  YS02001633           JUNCTION        5.34          0.885        0.175
  YS02001649           JUNCTION        5.41          0.973        0.077
  YS02001757           JUNCTION        5.52          1.105        0.105
  YS02001625           JUNCTION        5.03          0.757        0.023
  YS02163301           JUNCTION        5.28          0.843        0.187
  YS02163601           JUNCTION        5.40          0.959        0.121
  YS02164001           JUNCTION        5.35          0.897        0.203
  YS02001647           JUNCTION        4.97          0.747        0.153
  
  
  *********************
  Node Flooding Summary
  *********************
  
  Flooding refers to all water that overflows a node, whether it ponds or not.
  --------------------------------------------------------------------------
                                                             Total   Maximum
                                 Maximum   Time of Max       Flood    Ponded
                        Hours       Rate    Occurrence      Volume     Depth
  Node                 Flooded       LPS   days hr:min    10^6 ltr    Meters
  --------------------------------------------------------------------------
  WS02006256              3.22    740.79      0  02:31       0.793     0.000
  YS02001779              0.10      3.09      0  04:38       0.001     0.000
  YS02001644              3.44    399.82      0  04:38       2.228     0.000
  XR-storage              2.24     76.41      0  02:47       0.314     0.000
  
  
  **********************
  Storage Volume Summary
  **********************
  
  --------------------------------------------------------------------------------------------------
                         Average     Avg  Evap Exfil       Maximum     Max    Time of Max    Maximum
                          Volume    Pcnt  Pcnt  Pcnt        Volume    Pcnt     Occurrence    Outflow
  Storage Unit           1000 m3    Full  Loss  Loss       1000 m3    Full    days hr:min        LPS
  --------------------------------------------------------------------------------------------------
  JK-storage               0.199      68     0     0         0.245      84       0  02:47     983.00
  CC-storage               2.200      14     0     0         3.832      24       0  04:33     109.16
  XR-storage               0.864      93     0     0         0.926     100       0  02:35     285.00
  
  
  ***********************
  Outfall Loading Summary
  ***********************
  
  ---------------------------------------------------------------------------------------------------------------------------------
                         Flow       Avg       Max       Total         Total         Total         Total         Total         Total
                         Freq      Flow      Flow      Volume           COD            SS            TN            TP         NH4-N
  Outfall Node           Pcnt       LPS       LPS    10^6 ltr            kg            kg            kg            kg            kg
  ---------------------------------------------------------------------------------------------------------------------------------
  WSC                   99.99    452.80    781.76      11.723      1716.079      2786.905       142.223        17.420        87.951
  ---------------------------------------------------------------------------------------------------------------------------------
  System                99.99    452.80    781.76      11.723      1716.079      2786.905       142.223        17.420        87.951
  
  
  ********************
  Link Flow Summary
  ********************
  
  -----------------------------------------------------------------------------
                                 Maximum  Time of Max   Maximum    Max/    Max/
                                  |Flow|   Occurrence   |Veloc|    Full    Full
  Link                 Type          LPS  days hr:min     m/sec    Flow   Depth
  -----------------------------------------------------------------------------
  WS02003066WSF200     CONDUIT    473.65     0  02:34      2.66    0.08    0.21
  WS02006287WS02006284 CONDUIT    239.07     0  02:13      1.71    0.11    0.23
  WS02006284WS02006280 CONDUIT    239.18     0  02:13      1.95    0.10    0.21
  WS02006280WS02006229 CONDUIT    239.18     0  02:13      3.13    0.05    0.15
  WS02006229WS02006228 CONDUIT    473.92     0  02:25      0.94    1.57    1.00
  WS02006256WS02006235 CONDUIT    287.93     0  07:34      4.18    3.05    1.00
  WS02006253WS02006251 CONDUIT     47.48     0  02:13      0.52    0.14    0.29
  WS02006252WS02006251 CONDUIT      0.00     0  00:00      0.00    0.00    0.00
  WS02006251WS02006249 CONDUIT     47.48     0  02:13      0.57    0.14    0.27
  WS02006249WS02006248 CONDUIT     47.43     0  02:14      0.68    0.26    0.28
  WS02006248WS02006247 CONDUIT     47.41     0  02:15      0.65    0.10    0.35
  WS02006247WS02006245 CONDUIT     47.55     0  02:16      0.60    0.38    0.42
  WS02006245WS02006243 CONDUIT     49.49     0  02:15      0.73    0.15    0.47
  WS02006243WS02006242 CONDUIT     59.10     0  04:07      0.59    0.13    0.61
  WS02006242WS02006240 CONDUIT     81.05     0  04:06      0.71    0.32    0.71
  WS02006240WS02006239 CONDUIT    103.11     0  04:06      0.75    0.32    0.73
  WS02006239WS02006238 CONDUIT    128.92     0  04:05      0.86    0.41    0.85
  WS02006238WS02006235 CONDUIT    197.77     0  02:13      1.26    0.44    0.90
  WS02006235WS02006234 CONDUIT    282.53     0  02:36      1.11    2.98    0.85
  WS02006234WS02006232 CONDUIT    283.26     0  02:36      0.98    0.57    0.92
  WS02006232WS02006231 CONDUIT    283.91     0  02:36      0.86    0.59    0.89
  WS02006231WS02006230 CONDUIT    285.04     0  02:38      1.21    4.32    0.78
  WS02006230WS02006229 CONDUIT    296.79     0  02:38      0.77    6.60    1.00
  WS02006228WS02006109 CONDUIT    474.03     0  02:25      0.94    2.07    1.00
  WS02006116WS02004401 CONDUIT    477.47     0  02:29      0.72    0.66    0.79
  WS02006115WS02006116 CONDUIT    478.03     0  02:28      0.84    0.61    0.71
  WS02006113WS02006111 CONDUIT    490.68     0  02:27      2.36    0.59    0.43
  WS02006112WS02006115 CONDUIT    480.19     0  02:26      0.70    0.28    0.84
  WS02006111WS02006112 CONDUIT    477.21     0  02:28      1.35    0.23    0.66
  WS02006110WS02006113 CONDUIT    475.35     0  02:25      1.15    0.43    0.77
  WS02006109WS02006110 CONDUIT    475.30     0  02:25      0.95    0.91    0.98
  WS02004411WS02004412 CONDUIT    473.95     0  02:33      0.87    0.67    0.66
  WS02004401WS02004402 CONDUIT    476.89     0  02:28      0.69    0.57    0.82
  WS02004413WS02003067 CONDUIT    473.65     0  02:34      1.04    0.20    0.56
  WS02004412WS02004413 CONDUIT    473.72     0  02:33      0.77    0.32    0.74
  WS02004410WS02004411 CONDUIT    474.41     0  02:32      0.89    0.65    0.64
  WS02004409WS02004410 CONDUIT    475.07     0  02:31      0.93    0.61    0.63
  WS02004407WS02004409 CONDUIT    476.35     0  02:30      1.43    0.17    0.45
  WS02004406WS02004407 CONDUIT    476.41     0  02:30      0.97    0.21    0.60
  WS02004405WS02004406 CONDUIT    476.47     0  02:30      0.63    0.94    0.92
  WS02004404WS02004405 CONDUIT    476.50     0  02:29      0.63    4.67    0.92
  WS02004403WS02004404 CONDUIT    476.50     0  02:29      0.65    0.34    0.89
  WS02004402WS02004403 CONDUIT    476.73     0  02:29      0.68    0.68    0.84
  WS02004139WS02001211 CONDUIT    287.21     0  07:26      0.54    0.36    0.53
  WS02004138WS02004139 CONDUIT    285.70     0  07:25      2.39    0.06    0.39
  WS02003067WS02003066 CONDUIT    473.65     0  02:34      1.12    0.15    0.40
  WS02001213WS02003059 CONDUIT    297.93     0  04:19      0.59    0.49    0.71
  WS02001212WS02001213 CONDUIT    295.76     0  04:19      1.19    0.46    0.40
  WS02001211WS02001212 CONDUIT    294.67     0  04:20      0.67    0.23    0.58
  WS02003072WS02003073 CONDUIT    779.93     0  02:37      1.62    1.68    0.44
  WS02003069WS02003072 CONDUIT    779.93     0  02:37      1.53    0.38    0.46
  WS02003060WS02003069 CONDUIT    779.63     0  02:36      1.78    0.31    0.41
  WS02003059WS02003060 CONDUIT    301.08     0  04:18      0.82    0.20    0.60
  HS02004901HS02004770 CONDUIT     11.87     0  02:10      0.05    0.04    0.34
  HS02004876HS02004881 CONDUIT     41.49     0  02:13      0.64    0.44    0.09
  HS02004870HS02004876 CONDUIT     33.01     0  02:13      0.44    0.02    0.11
  HS02004842HS02004848 CONDUIT      6.26     0  02:23      0.03    0.00    0.28
  HS02004837HS02004842 CONDUIT      6.49     0  02:24      0.42    0.00    0.29
  HS02004830HS02004837 CONDUIT     26.84     0  02:12      0.47    0.03    0.08
  HS02004824HS02004830 CONDUIT     26.99     0  02:13      0.50    0.04    0.08
  HS02004817HS02004824 CONDUIT     44.81     0  02:15      0.17    0.02    0.41
  HS02004770HS02004777 CONDUIT     60.87     0  02:09      0.25    0.11    0.35
  HS02004799HS02004480 CONDUIT    151.10     0  02:11      0.64    0.19    0.34
  HS02004792HS02004799 CONDUIT    138.00     0  02:11      0.73    0.08    0.27
  HS02004788HS02004792 CONDUIT     80.25     0  02:12      0.88    0.05    0.13
  HS02004785HS02004788 CONDUIT     60.53     0  02:11      0.55    0.46    0.16
  HS02004777HS02004785 CONDUIT     60.46     0  02:11      0.30    0.07    0.29
  HS02004480HS02004478 CONDUIT    178.52     0  02:12      1.02    0.75    0.25
  HS02004479HS02004480 CONDUIT     28.08     0  02:14      0.17    0.03    0.33
  HS02004862HS02004870 CONDUIT     24.30     0  02:14      0.50    0.03    0.07
  HS02004848HS02004852 CONDUIT     10.10     0  02:12      0.34    0.01    0.04
  HS02004856HS02004862 CONDUIT     16.54     0  02:13      0.37    0.02    0.06
  HS02004852HS02004856 CONDUIT     10.05     0  02:14      0.15    0.01    0.10
  HS02004802HS02004478 CONDUIT     62.20     0  02:16      0.33    0.05    0.27
  HS02004478WS02006287 CONDUIT    239.02     0  02:13      1.40    0.07    0.19
  HS02004817HS02004807 CONDUIT     46.02     0  02:17      0.12    0.03    0.53
  HS02004807HS02004802 CONDUIT     61.74     0  02:15      0.28    0.12    0.32
  YS02001759YS02001757 CONDUIT    237.47     0  03:06      0.30    0.17    1.00
  YS02001762YS02001759 CONDUIT    135.08     0  03:06      0.17    0.16    1.00
  YS02001765YS02001762 CONDUIT    132.23     0  03:06      0.24    0.12    1.00
  YS02001770YS02001767 CONDUIT    126.59     0  03:06      0.29    0.50    1.00
  YS02001774YS02001770 CONDUIT     38.27     0  02:12      0.13    0.02    1.00
  YS02001779YS02001774 CONDUIT     24.17     0  03:06      0.07    0.01    1.00
  YS02001649YS02001757 CONDUIT    350.97     0  02:46      0.45    0.21    1.00
  YS02001767YS02001765 CONDUIT    129.67     0  03:06      0.27    0.16    1.00
  YS02006561YS02001783 CONDUIT    392.82     0  02:50      1.90    0.20    0.43
  YS02001783YS02001784 CONDUIT    392.65     0  02:42      1.33    0.54    0.57
  YS02001784YS02001785 CONDUIT    393.65     0  02:42      1.42    0.92    0.54
  YS02001788YS02001790 CONDUIT    393.80     0  02:43      1.98    0.29    0.42
  YS02001790YS02001791 CONDUIT    393.91     0  02:43      2.35    0.43    0.37
  YS02001791YS02001793 CONDUIT    393.90     0  02:43      4.47    0.17    0.64
  YS02001910YS02001907 CONDUIT    126.49     0  02:52      0.49    0.07    0.79
  YS02001786YS02001788 CONDUIT    393.70     0  02:43      1.87    0.76    0.44
  YS02001915YS02001910 CONDUIT    125.14     0  02:52      0.45    0.06    0.58
  YS02001918YS02001915 CONDUIT     42.43     0  03:04      0.44    0.02    0.30
  YS02001923YS02001920 CONDUIT     38.34     0  03:01      0.49    0.02    0.16
  YS02001926YS02001923 CONDUIT     38.31     0  03:01      0.54    0.05    0.15
  YS02001929YS02001926 CONDUIT     38.29     0  03:01      0.57    0.02    0.14
  YS02001920YS02001918 CONDUIT     41.35     0  03:02      0.50    0.04    0.17
  YS02001629YS02163301 CONDUIT     81.59     0  02:47      0.11    0.10    1.00
  YS02001619YS02001622 CONDUIT    106.06     0  03:19      0.66    0.16    1.00
  YS02001622YS02001625 CONDUIT    154.29     0  03:17      0.27    0.08    1.00
  YS02001625YS02001629 CONDUIT    153.60     0  03:16      0.26    0.07    1.00
  YS02163301YS02001633 CONDUIT     81.14     0  02:47      0.10    0.08    1.00
  YS02163601YS02164001 CONDUIT    165.09     0  02:47      0.21    0.15    1.00
  YS02164001YS02001641 CONDUIT    162.98     0  02:50      0.21    0.22    1.00
  YS02001641YS02001644 CONDUIT    162.98     0  02:50      0.21    0.53    1.00
  YS02001647YS02001649 CONDUIT    275.59     0  04:39      0.35    0.15    1.00
  YS02006553YS02006556 CONDUIT    268.67     0  02:52      0.37    0.23    0.87
  YS02006556YS02006558 CONDUIT    270.26     0  02:52      0.36    0.21    0.90
  YSB6556YSB1171       CONDUIT     15.36     0  02:14      0.06    0.02    0.60
  YS02001907YS02006553 CONDUIT    270.99     0  02:52      0.31    0.32    0.99
  YS02006558YS02006561 CONDUIT    409.53     0  02:46      2.55    0.91    0.56
  YS02001633YS02163601 CONDUIT    166.29     0  02:47      0.21    0.17    1.00
  YS02001644YS02001647 CONDUIT    275.60     0  04:40      0.35    0.16    1.00
  YS02001745YS02001748 CONDUIT    183.62     0  03:15      1.47    0.07    0.92
  YS02001748YS02001751 CONDUIT    163.46     0  03:14      1.13    0.08    1.00
  YS02001751YS02001754 CONDUIT    121.68     0  03:17      0.90    0.06    1.00
  YS02001754YS02001757 CONDUIT    123.12     0  03:17      0.33    0.05    1.00
  YS02001882YS02001884 CONDUIT      4.24     0  02:04      0.07    0.00    0.52
  YS02001884YS02001887 CONDUIT     11.83     0  02:04      0.05    0.02    0.61
  YS02001890YS02001895 CONDUIT    150.29     0  02:36      0.32    0.07    0.58
  YS02001895YS02001898 CONDUIT    150.64     0  02:35      0.45    0.26    0.44
  YS02001898YS02001901 CONDUIT    150.33     0  02:34      0.36    0.10    0.52
  YS02001901YS02001904 CONDUIT    149.79     0  02:36      0.32    0.23    0.57
  YS02001904YS02001907 CONDUIT    150.43     0  02:33      0.24    0.05    0.73
  YS02001887YS02001890 CONDUIT    151.17     0  02:33      0.27    0.26    0.67
  YS02001652YS02001649 CONDUIT    123.32     0  02:38      0.37    0.06    1.00
  YS02001655YS02001652 CONDUIT    124.53     0  02:39      0.93    0.06    1.00
  YS02001658YS02001655 CONDUIT    174.11     0  03:17      1.30    0.07    1.00
  YS02001661YS02001658 CONDUIT    203.18     0  03:17      1.53    0.08    0.94
  YS02001664YS02001661 CONDUIT    106.06     0  02:35      1.23    0.03    0.70
  YSB1154YSB6556       CONDUIT     15.07     0  02:12      0.19    0.03    0.49
  YSB1174YSB1171       CONDUIT     13.27     0  02:07      0.06    0.02    0.60
  YSB1171HS02004479    CONDUIT     27.83     0  02:13      0.54    0.02    0.47
  HS02004881HS02006253 CONDUIT     46.29     0  02:12      1.78    0.01    0.04
  YS02001793JiankangQianchi CONDUIT   1061.45     0  02:25      1.81    0.08    0.97
  YS02001757CaochengTiaoxuchi CONDUIT    655.36     0  02:45      1.25    0.29    1.00
  WSF200WS02003060     CONDUIT    473.74     0  02:34      1.58    0.11    0.31
  1                    CONDUIT    781.76     0  02:38      3.11    0.27    0.36
  CC-Pump-1            PUMP         0.00     0  00:00              0.00
  CC-Pump-2            PUMP         0.00     0  00:00              0.00
  JK-Pump-1            PUMP       300.00     0  02:13              1.00
  JK-Pump-2            PUMP       683.00     0  02:31              1.00
  XR-Pump-1            PUMP        95.00     0  00:00              1.00
  XR-Pump-2            PUMP        95.00     0  00:25              1.00
  XR-Pump-3            PUMP        95.00     0  01:57              1.00
  XR-Pump-4            PUMP         0.00     0  00:00              0.00
  
  
  ***************************
  Flow Classification Summary
  ***************************
  
  -------------------------------------------------------------------------------------
                      Adjusted    ---------- Fraction of Time in Flow Class ---------- 
                       /Actual         Up    Down  Sub   Sup   Up    Down  Norm  Inlet 
  Conduit               Length    Dry  Dry   Dry   Crit  Crit  Crit  Crit  Ltd   Ctrl  
  -------------------------------------------------------------------------------------
  WS02003066WSF200        1.00   0.23  0.00  0.00  0.00  0.77  0.00  0.00  0.69  0.00
  WS02006287WS02006284    1.00   0.07  0.05  0.00  0.54  0.34  0.00  0.00  0.77  0.00
  WS02006284WS02006280    1.00   0.09  0.00  0.00  0.00  0.00  0.00  0.91  0.00  0.00
  WS02006280WS02006229    1.00   0.09  0.00  0.00  0.00  0.00  0.00  0.91  0.00  0.00
  WS02006229WS02006228    1.00   0.00  0.00  0.00  0.99  0.00  0.00  0.01  0.00  0.00
  WS02006256WS02006235    1.00   0.15  0.00  0.00  0.84  0.01  0.00  0.00  0.02  0.00
  WS02006253WS02006251    1.00   0.03  0.04  0.00  0.92  0.00  0.01  0.00  0.00  0.00
  WS02006252WS02006251    1.00   1.00  0.00  0.00  0.00  0.00  0.00  0.00  0.00  0.00
  WS02006251WS02006249    1.00   0.00  0.00  0.00  1.00  0.00  0.00  0.00  0.88  0.00
  WS02006249WS02006248    1.00   0.00  0.01  0.00  0.45  0.00  0.54  0.00  0.00  0.00
  WS02006248WS02006247    1.00   0.01  0.00  0.00  0.95  0.00  0.00  0.04  0.53  0.00
  WS02006247WS02006245    1.00   0.02  0.00  0.00  0.92  0.00  0.00  0.06  0.00  0.00
  WS02006245WS02006243    1.00   0.02  0.00  0.00  0.84  0.00  0.00  0.13  0.02  0.00
  WS02006243WS02006242    1.00   0.03  0.00  0.00  0.89  0.00  0.00  0.09  0.36  0.00
  WS02006242WS02006240    1.00   0.03  0.08  0.00  0.87  0.00  0.01  0.00  0.00  0.00
  WS02006240WS02006239    1.00   0.12  0.00  0.00  0.78  0.00  0.00  0.11  0.04  0.00
  WS02006239WS02006238    1.00   0.12  0.00  0.00  0.85  0.00  0.00  0.03  0.01  0.00
  WS02006238WS02006235    1.00   0.12  0.02  0.00  0.85  0.00  0.00  0.00  0.00  0.00
  WS02006235WS02006234    1.00   0.15  0.00  0.00  0.78  0.00  0.06  0.00  0.00  0.00
  WS02006234WS02006232    1.00   0.16  0.00  0.00  0.84  0.00  0.00  0.00  0.01  0.00
  WS02006232WS02006231    1.00   0.16  0.03  0.00  0.80  0.00  0.00  0.00  0.01  0.00
  WS02006231WS02006230    1.00   0.18  0.00  0.00  0.27  0.00  0.55  0.00  0.00  0.00
  WS02006230WS02006229    1.00   0.00  0.00  0.00  0.98  0.00  0.00  0.02  0.01  0.00
  WS02006228WS02006109    1.00   0.00  0.00  0.00  1.00  0.00  0.00  0.00  0.01  0.00
  WS02006116WS02004401    1.00   0.07  0.00  0.00  0.93  0.00  0.00  0.00  0.01  0.00
  WS02006115WS02006116    1.00   0.07  0.00  0.00  0.85  0.00  0.00  0.08  0.00  0.00
  WS02006113WS02006111    1.00   0.04  0.00  0.00  0.02  0.94  0.00  0.00  0.28  0.00
  WS02006112WS02006115    1.00   0.05  0.03  0.00  0.93  0.00  0.00  0.00  0.00  0.00
  WS02006111WS02006112    1.00   0.05  0.00  0.00  0.95  0.00  0.00  0.01  0.92  0.00
  WS02006110WS02006113    1.00   0.01  0.03  0.00  0.96  0.00  0.00  0.00  0.00  0.00
  WS02006109WS02006110    1.00   0.00  0.01  0.00  0.98  0.00  0.01  0.00  0.00  0.00
  WS02004411WS02004412    1.00   0.18  0.00  0.00  0.82  0.00  0.00  0.00  0.00  0.00
  WS02004401WS02004402    1.00   0.07  0.00  0.00  0.93  0.00  0.00  0.00  0.04  0.00
  WS02004413WS02003067    1.00   0.19  0.03  0.00  0.00  0.00  0.78  0.00  0.00  0.00
  WS02004412WS02004413    1.00   0.19  0.00  0.00  0.81  0.01  0.00  0.00  0.00  0.00
  WS02004410WS02004411    1.00   0.18  0.00  0.00  0.82  0.00  0.00  0.00  0.00  0.00
  WS02004409WS02004410    1.00   0.18  0.00  0.00  0.82  0.00  0.00  0.00  0.00  0.00
  WS02004407WS02004409    1.00   0.18  0.00  0.00  0.81  0.01  0.00  0.00  0.74  0.00
  WS02004406WS02004407    1.00   0.00  0.18  0.00  0.82  0.00  0.00  0.00  0.00  0.00
  WS02004405WS02004406    1.00   0.00  0.00  0.00  1.00  0.00  0.00  0.00  0.04  0.00
  WS02004404WS02004405    1.00   0.00  0.00  0.00  1.00  0.00  0.00  0.00  0.02  0.00
  WS02004403WS02004404    1.00   0.00  0.08  0.00  0.92  0.00  0.00  0.00  0.04  0.00
  WS02004402WS02004403    1.00   0.07  0.00  0.00  0.93  0.00  0.00  0.00  0.00  0.00
  WS02004139WS02001211    1.00   0.00  0.00  0.00  1.00  0.00  0.00  0.00  0.00  0.00
  WS02004138WS02004139    1.00   0.00  0.00  0.00  0.99  0.01  0.00  0.00  1.00  0.00
  WS02003067WS02003066    1.00   0.22  0.01  0.00  0.77  0.00  0.00  0.00  0.00  0.00
  WS02001213WS02003059    1.00   0.00  0.00  0.00  0.99  0.00  0.00  0.00  0.00  0.00
  WS02001212WS02001213    1.00   0.00  0.00  0.00  0.40  0.00  0.60  0.00  0.00  0.00
  WS02001211WS02001212    1.00   0.00  0.00  0.00  1.00  0.00  0.00  0.00  0.00  0.00
  WS02003072WS02003073    1.00   0.00  0.00  0.00  0.00  0.00  0.00  1.00  0.00  0.00
  WS02003069WS02003072    1.00   0.00  0.00  0.00  1.00  0.00  0.00  0.00  0.37  0.00
  WS02003060WS02003069    1.00   0.00  0.00  0.00  0.98  0.02  0.00  0.00  0.24  0.00
  WS02003059WS02003060    1.00   0.00  0.00  0.00  1.00  0.00  0.00  0.00  0.02  0.00
  HS02004901HS02004770    1.00   0.09  0.00  0.00  0.91  0.00  0.00  0.00  0.01  0.00
  HS02004876HS02004881    1.00   0.01  0.00  0.00  0.99  0.00  0.00  0.00  0.00  0.00
  HS02004870HS02004876    1.00   0.00  0.00  0.00  0.99  0.01  0.00  0.00  0.95  0.00
  HS02004842HS02004848    1.00   0.00  0.09  0.00  0.91  0.00  0.00  0.00  0.65  0.00
  HS02004837HS02004842    1.00   0.00  0.00  0.00  1.00  0.00  0.00  0.00  0.11  0.00
  HS02004830HS02004837    1.00   0.00  0.00  0.00  1.00  0.00  0.00  0.00  0.99  0.00
  HS02004824HS02004830    1.00   0.00  0.00  0.00  1.00  0.00  0.00  0.00  0.00  0.00
  HS02004817HS02004824    1.00   0.00  0.00  0.00  1.00  0.00  0.00  0.00  1.00  0.00
  HS02004770HS02004777    1.00   0.00  0.09  0.00  0.91  0.00  0.00  0.00  0.05  0.00
  HS02004799HS02004480    1.00   0.00  0.02  0.00  0.87  0.00  0.10  0.00  0.00  0.00
  HS02004792HS02004799    1.00   0.00  0.00  0.00  0.99  0.01  0.00  0.00  0.98  0.00
  HS02004788HS02004792    1.00   0.00  0.00  0.00  0.99  0.01  0.00  0.00  0.98  0.00
  HS02004785HS02004788    1.00   0.00  0.00  0.00  1.00  0.00  0.00  0.00  0.00  0.00
  HS02004777HS02004785    1.00   0.00  0.00  0.00  1.00  0.00  0.00  0.00  0.17  0.00
  HS02004480HS02004478    1.00   0.10  0.00  0.00  0.57  0.00  0.00  0.33  0.00  0.00
  HS02004479HS02004480    1.00   0.02  0.00  0.00  0.98  0.00  0.00  0.00  0.15  0.00
  HS02004862HS02004870    1.00   0.00  0.00  0.00  1.00  0.00  0.00  0.00  0.06  0.00
  HS02004848HS02004852    1.00   0.09  0.00  0.00  0.91  0.00  0.00  0.00  0.72  0.00
  HS02004856HS02004862    1.00   0.00  0.15  0.00  0.85  0.00  0.00  0.00  0.77  0.00
  HS02004852HS02004856    1.00   0.09  0.02  0.00  0.89  0.00  0.00  0.00  0.84  0.00
  HS02004802HS02004478    1.00   0.09  0.01  0.00  0.90  0.00  0.00  0.00  0.01  0.00
  HS02004478WS02006287    1.00   0.12  0.00  0.00  0.75  0.13  0.00  0.00  0.76  0.00
  HS02004817HS02004807    1.00   0.00  0.09  0.00  0.91  0.00  0.00  0.00  0.00  0.00
  HS02004807HS02004802    1.00   0.09  0.00  0.00  0.90  0.00  0.00  0.01  0.01  0.00
  YS02001759YS02001757    1.00   0.00  0.00  0.00  1.00  0.00  0.00  0.00  0.18  0.00
  YS02001762YS02001759    1.00   0.00  0.00  0.00  1.00  0.00  0.00  0.00  0.04  0.00
  YS02001765YS02001762    1.00   0.00  0.00  0.00  1.00  0.00  0.00  0.00  0.20  0.00
  YS02001770YS02001767    1.00   0.00  0.00  0.00  1.00  0.00  0.00  0.00  0.00  0.00
  YS02001774YS02001770    1.00   0.00  0.11  0.00  0.89  0.00  0.00  0.00  0.05  0.00
  YS02001779YS02001774    1.00   0.00  0.00  0.00  1.00  0.00  0.00  0.00  0.24  0.00
  YS02001649YS02001757    1.00   0.00  0.00  0.00  1.00  0.00  0.00  0.00  0.18  0.00
  YS02001767YS02001765    1.00   0.00  0.00  0.00  1.00  0.00  0.00  0.00  0.01  0.00
  YS02006561YS02001783    1.00   0.16  0.00  0.00  0.00  0.84  0.00  0.00  0.68  0.00
  YS02001783YS02001784    1.00   0.00  0.16  0.00  0.84  0.00  0.00  0.00  0.01  0.00
  YS02001784YS02001785    1.00   0.00  0.00  0.00  1.00  0.00  0.00  0.00  0.23  0.00
  YS02001788YS02001790    1.00   0.00  0.00  0.00  0.17  0.83  0.00  0.00  0.72  0.00
  YS02001790YS02001791    1.00   0.00  0.00  0.00  0.01  0.99  0.00  0.00  0.61  0.00
  YS02001791YS02001793    1.00   0.00  0.00  0.00  0.32  0.68  0.00  0.00  0.38  0.00
  YS02001910YS02001907    1.00   0.00  0.00  0.00  0.98  0.00  0.00  0.02  0.13  0.00
  YS02001786YS02001788    1.00   0.00  0.00  0.00  0.18  0.82  0.00  0.00  0.00  0.00
  YS02001915YS02001910    1.00   0.00  0.00  0.00  0.99  0.01  0.00  0.00  0.22  0.00
  YS02001918YS02001915    1.00   0.00  0.00  0.00  0.99  0.01  0.00  0.00  0.73  0.00
  YS02001923YS02001920    1.00   0.00  0.00  0.00  1.00  0.00  0.00  0.00  1.00  0.00
  YS02001926YS02001923    1.00   0.00  0.05  0.00  0.00  0.00  0.95  0.00  0.00  0.00
  YS02001929YS02001926    1.00   0.00  0.09  0.00  0.91  0.00  0.00  0.00  0.87  0.00
  YS02001920YS02001918    1.00   0.00  0.00  0.00  1.00  0.00  0.00  0.00  0.00  0.00
  YS02001629YS02163301    1.00   0.13  0.01  0.00  0.86  0.00  0.00  0.00  0.00  0.00
  YS02001619YS02001622    1.00   0.09  0.00  0.00  0.91  0.00  0.00  0.00  0.00  0.00
  YS02001622YS02001625    1.00   0.09  0.00  0.00  0.91  0.00  0.00  0.00  0.11  0.00
  YS02001625YS02001629    1.00   0.09  0.08  0.00  0.79  0.00  0.04  0.00  0.00  0.00
  YS02163301YS02001633    1.00   0.00  0.13  0.00  0.87  0.00  0.00  0.00  0.00  0.00
  YS02163601YS02164001    1.00   0.00  0.05  0.00  0.95  0.00  0.00  0.00  0.00  0.00
  YS02164001YS02001641    1.00   0.01  0.05  0.00  0.95  0.00  0.00  0.00  0.07  0.00
  YS02001641YS02001644    1.00   0.00  0.00  0.00  1.00  0.00  0.00  0.00  0.00  0.00
  YS02001647YS02001649    1.00   0.00  0.16  0.00  0.84  0.00  0.00  0.00  0.01  0.00
  YS02006553YS02006556    1.00   0.01  0.00  0.00  0.99  0.00  0.00  0.00  0.03  0.00
  YS02006556YS02006558    1.00   0.00  0.00  0.00  1.00  0.00  0.00  0.00  0.00  0.00
  YSB6556YSB1171          1.00   0.03  0.06  0.00  0.92  0.00  0.00  0.00  0.00  0.00
  YS02001907YS02006553    1.00   0.00  0.01  0.00  0.98  0.00  0.00  0.00  0.00  0.00
  YS02006558YS02006561    1.00   0.16  0.00  0.00  0.00  0.84  0.00  0.00  0.72  0.00
  YS02001633YS02163601    1.00   0.00  0.00  0.00  1.00  0.00  0.00  0.00  0.18  0.00
  YS02001644YS02001647    1.00   0.00  0.16  0.00  0.84  0.00  0.00  0.00  0.00  0.00
  YS02001745YS02001748    1.00   0.00  0.00  0.00  0.73  0.01  0.00  0.25  0.09  0.00
  YS02001748YS02001751    1.00   0.00  0.00  0.00  0.91  0.09  0.00  0.00  0.20  0.00
  YS02001751YS02001754    1.00   0.00  0.00  0.00  0.81  0.00  0.00  0.18  0.02  0.00
  YS02001754YS02001757    1.00   0.00  0.00  0.00  1.00  0.00  0.00  0.00  0.24  0.00
  YS02001882YS02001884    1.00   0.12  0.01  0.00  0.87  0.00  0.00  0.00  0.00  0.00
  YS02001884YS02001887    1.00   0.04  0.04  0.00  0.93  0.00  0.00  0.00  0.00  0.00
  YS02001890YS02001895    1.00   0.00  0.14  0.00  0.86  0.00  0.00  0.00  0.00  0.00
  YS02001895YS02001898    1.00   0.14  0.00  0.00  0.83  0.00  0.03  0.00  0.00  0.00
  YS02001898YS02001901    1.00   0.14  0.01  0.00  0.86  0.00  0.00  0.00  0.02  0.00
  YS02001901YS02001904    1.00   0.14  0.00  0.00  0.86  0.00  0.00  0.00  0.00  0.00
  YS02001904YS02001907    1.00   0.00  0.13  0.00  0.87  0.00  0.00  0.00  0.00  0.00
  YS02001887YS02001890    1.00   0.00  0.00  0.00  0.98  0.00  0.02  0.00  0.00  0.00
  YS02001652YS02001649    1.00   0.00  0.00  0.00  1.00  0.00  0.00  0.00  0.22  0.00
  YS02001655YS02001652    1.00   0.00  0.00  0.00  0.82  0.00  0.00  0.18  0.02  0.00
  YS02001658YS02001655    1.00   0.00  0.11  0.00  0.79  0.10  0.00  0.00  0.09  0.00
  YS02001661YS02001658    1.00   0.11  0.00  0.00  0.73  0.16  0.00  0.00  0.10  0.00
  YS02001664YS02001661    1.00   0.08  0.00  0.00  0.73  0.19  0.00  0.00  0.33  0.00
  YSB1154YSB6556          1.00   0.08  0.00  0.00  0.92  0.00  0.00  0.00  0.02  0.00
  YSB1174YSB1171          1.00   0.03  0.03  0.00  0.94  0.00  0.00  0.00  0.00  0.00
  YSB1171HS02004479       1.00   0.03  0.00  0.00  0.96  0.00  0.00  0.01  0.13  0.00
  HS02004881HS02006253    1.00   0.04  0.00  0.00  0.00  0.00  0.00  0.96  0.00  0.00
  YS02001793JiankangQianchi    1.00   0.00  0.00  0.00  1.00  0.00  0.00  0.00  0.59  0.00
  YS02001757CaochengTiaoxuchi    1.00   0.00  0.21  0.00  0.79  0.00  0.00  0.00  0.00  0.00
  WSF200WS02003060        1.00   0.00  0.23  0.00  0.77  0.00  0.00  0.00  0.57  0.00
  1                       1.00   0.00  0.00  0.00  0.00  1.00  0.00  0.00  0.33  0.00
  
  
  *************************
  Conduit Surcharge Summary
  *************************
  
  ----------------------------------------------------------------------------
                                                           Hours        Hours 
                         --------- Hours Full --------   Above Full   Capacity
  Conduit                Both Ends  Upstream  Dnstream   Normal Flow   Limited
  ----------------------------------------------------------------------------
  WS02006229WS02006228        0.57      0.61      0.57      1.35         0.57
  WS02006256WS02006235        3.76      3.82      5.75      3.24         0.01
  WS02006235WS02006234        0.01      0.01      0.01      3.42         0.01
  WS02006231WS02006230        0.01      0.01      0.01      4.14         0.01
  WS02006230WS02006229        0.89      1.09      0.89      4.83         0.89
  WS02006228WS02006109        0.59      0.73      0.59      2.13         0.59
  WS02006111WS02006112        0.01      0.01      1.80      0.01         0.01
  WS02006110WS02006113        0.01      0.01      0.66      0.01         0.01
  WS02006109WS02006110        0.01      0.01      0.73      0.01         0.01
  WS02004404WS02004405        0.01      0.01      0.01      4.43         0.01
  WS02003072WS02003073        0.01      0.01      0.01      2.96         0.01
  YS02001759YS02001757        5.43      5.43      5.52      0.01         0.01
  YS02001762YS02001759        5.39      5.39      5.43      0.01         0.01
  YS02001765YS02001762        5.35      5.35      5.39      0.01         0.01
  YS02001770YS02001767        5.30      5.30      5.30      0.01         0.14
  YS02001774YS02001770        5.24      5.24      5.38      0.01         0.01
  YS02001779YS02001774        4.73      4.73      5.38      0.01         0.01
  YS02001649YS02001757        5.41      5.41      5.52      0.01         0.01
  YS02001767YS02001765        5.30      5.30      5.35      0.01         0.01
  YS02001791YS02001793        0.01      0.01      0.19      0.01         0.01
  YS02001629YS02163301        5.22      5.22      5.28      0.01         0.01
  YS02001619YS02001622        4.35      4.35      4.38      0.01         0.01
  YS02001622YS02001625        4.38      4.38      5.03      0.01         0.01
  YS02001625YS02001629        4.35      4.35      5.03      0.01         0.01
  YS02163301YS02001633        5.28      5.28      5.35      0.01         0.01
  YS02163601YS02164001        5.35      5.35      5.40      0.01         0.01
  YS02164001YS02001641        5.35      5.35      5.37      0.01         0.01
  YS02001641YS02001644        5.37      5.37      5.37      0.01         0.12
  YS02001647YS02001649        4.97      4.97      5.41      0.01         0.01
  YS02001907YS02006553        0.01      0.01      0.52      0.01         0.01
  YS02001633YS02163601        5.34      5.34      5.40      0.01         0.01
  YS02001644YS02001647        4.97      4.97      5.37      0.01         0.01
  YS02001745YS02001748        0.01      0.01      3.89      0.01         0.01
  YS02001748YS02001751        4.05      4.05      4.41      0.01         0.01
  YS02001751YS02001754        4.41      4.41      4.83      0.01         0.01
  YS02001754YS02001757        4.95      4.95      5.52      0.01         0.01
  YS02001652YS02001649        5.01      5.01      5.41      0.01         0.01
  YS02001655YS02001652        4.47      4.47      4.91      0.01         0.01
  YS02001658YS02001655        3.92      3.92      4.47      0.01         0.01
  YS02001661YS02001658        0.01      0.01      3.92      0.01         0.01
  YS02001793JiankangQianchi        0.01      0.01      7.82      0.01         0.01
  YS02001757CaochengTiaoxuchi        4.15      4.15      5.52      0.01         0.01
  
  
  ***************
  Pumping Summary
  ***************
  
  ---------------------------------------------------------------------------------------------------------
                                                  Min       Avg       Max     Total     Power    % Time Off
                        Percent   Number of      Flow      Flow      Flow    Volume     Usage    Pump Curve
  Pump                 Utilized   Start-Ups       LPS       LPS       LPS  10^6 ltr     Kw-hr    Low   High
  ---------------------------------------------------------------------------------------------------------
  CC-Pump-1                0.00           0      0.00      0.00      0.00     0.000      0.00    0.0    0.0
  CC-Pump-2                0.00           0      0.00      0.00      0.00     0.000      0.00    0.0    0.0
  JK-Pump-1               41.10          11      0.00    300.00    300.00     3.477     39.60    0.0    0.0
  JK-Pump-2                1.20           8      0.00    683.00    683.00     0.231      2.38    0.0  100.0
  XR-Pump-1              100.00           1      0.00     95.00     95.00     2.679     16.87    0.0    0.0
  XR-Pump-2               94.70           1      0.00     95.00     95.00     2.537     15.44    0.0    0.0
  XR-Pump-3               69.39           2      0.00     95.00     95.00     1.859     10.28    0.0    0.0
  XR-Pump-4                0.00           0      0.00      0.00      0.00     0.000      0.00    0.0    0.0
  
  
  ***************************
  Link Pollutant Load Summary
  ***************************
  
  ------------------------------------------------------------------------------------------
                                 COD            SS            TN            TP         NH4-N
  Link                            kg            kg            kg            kg            kg
  ------------------------------------------------------------------------------------------
  WS02003066WSF200           330.516       564.488        12.553         1.277         7.106
  WS02006287WS02006284       121.672       210.724         6.546         0.744         3.886
  WS02006284WS02006280       122.094       211.406         6.585         0.749         3.911
  WS02006280WS02006229       122.075       211.371         6.584         0.749         3.910
  WS02006229WS02006228       335.604       571.232        12.777         1.298         7.233
  WS02006256WS02006235       202.459       338.377         5.998         0.539         3.236
  WS02006253WS02006251        14.895        27.554         0.394         0.033         0.204
  WS02006252WS02006251         0.000         0.000         0.000         0.000         0.000
  WS02006251WS02006249        15.474        28.499         0.447         0.039         0.237
  WS02006249WS02006248        15.385        28.336         0.442         0.039         0.234
  WS02006248WS02006247        15.797        29.036         0.458         0.040         0.243
  WS02006247WS02006245        17.346        31.526         0.525         0.047         0.282
  WS02006245WS02006243        19.573        35.190         0.603         0.055         0.325
  WS02006243WS02006242        24.300        42.897         0.744         0.067         0.400
  WS02006242WS02006240        32.659        56.313         0.997         0.089         0.537
  WS02006240WS02006239        40.484        68.806         1.261         0.114         0.682
  WS02006239WS02006238        48.710        81.770         1.561         0.143         0.849
  WS02006238WS02006235        53.735        89.592         1.749         0.161         0.956
  WS02006235WS02006234       214.934       362.029         6.280         0.560         3.376
  WS02006234WS02006232       215.224       362.505         6.293         0.561         3.384
  WS02006232WS02006231       214.512       361.354         6.259         0.557         3.364
  WS02006231WS02006230       214.706       361.658         6.266         0.558         3.367
  WS02006230WS02006229       214.685       361.738         6.261         0.557         3.364
  WS02006228WS02006109       334.812       570.040        12.724         1.292         7.201
  WS02006116WS02004401       341.125       581.035        13.241         1.357         7.522
  WS02006115WS02006116       342.050       582.459        13.302         1.364         7.558
  WS02006113WS02006111       341.236       580.408        13.387         1.376         7.618
  WS02006112WS02006115       342.927       583.863        13.362         1.371         7.595
  WS02006111WS02006112       341.067       580.175        13.379         1.375         7.613
  WS02006110WS02006113       341.592       580.980        13.413         1.379         7.633
  WS02006109WS02006110       342.652       582.675        13.495         1.389         7.684
  WS02004411WS02004412       333.212       568.717        12.745         1.300         7.223
  WS02004401WS02004402       340.011       579.270        13.163         1.348         7.474
  WS02004413WS02003067       331.160       565.493        12.590         1.281         7.128
  WS02004412WS02004413       332.206       567.140        12.682         1.293         7.185
  WS02004410WS02004411       333.934       569.840        12.790         1.305         7.250
  WS02004409WS02004410       334.565       570.823        12.831         1.310         7.275
  WS02004407WS02004409       335.081       571.612        12.862         1.313         7.293
  WS02004406WS02004407       335.278       571.886        12.871         1.314         7.299
  WS02004405WS02004406       337.278       575.049        13.027         1.333         7.395
  WS02004404WS02004405       338.213       576.476        13.070         1.337         7.419
  WS02004403WS02004404       337.917       575.980        13.018         1.331         7.386
  WS02004402WS02004403       338.918       577.563        13.088         1.339         7.429
  WS02004139WS02001211      1245.793      1998.899       116.033        14.434        72.311
  WS02004138WS02004139      1251.597      2008.226       116.561        14.499        72.640
  WS02003067WS02003066       330.589       564.596        12.560         1.278         7.110
  WS02001213WS02003059      1279.736      2053.124       119.352        14.850        74.389
  WS02001212WS02001213      1287.199      2065.112       120.036        14.935        74.815
  WS02001211WS02001212      1289.643      2069.029       120.266        14.964        74.958
  WS02003072WS02003073      1709.842      2776.958       141.549        17.334        87.526
  WS02003069WS02003072      1714.885      2785.019       142.028        17.394        87.825
  WS02003060WS02003069      1716.880      2788.212       142.197        17.415        87.930
  WS02003059WS02003060      1276.655      2048.172       119.074        14.815        74.216
  HS02004901HS02004770         3.186         5.798         0.062         0.004         0.028
  HS02004876HS02004881        12.554        23.118         0.354         0.030         0.185
  HS02004870HS02004876         9.651        17.674         0.306         0.027         0.164
  HS02004842HS02004848         1.767         3.123         0.039         0.003         0.018
  HS02004837HS02004842         6.393        10.490         0.507         0.061         0.311
  HS02004830HS02004837        50.194        82.130         4.264         0.525         2.644
  HS02004824HS02004830        50.943        83.330         4.336         0.534         2.689
  HS02004817HS02004824        57.854        96.022         4.506         0.546         2.776
  HS02004770HS02004777        12.326        22.634         0.266         0.017         0.121
  HS02004799HS02004480        50.767        89.059         2.109         0.223         1.197
  HS02004792HS02004799        47.079        81.849         2.088         0.225         1.196
  HS02004788HS02004792        30.316        52.481         1.619         0.181         0.951
  HS02004785HS02004788        13.823        25.041         0.419         0.037         0.217
  HS02004777HS02004785        13.284        24.171         0.370         0.031         0.187
  HS02004480HS02004478        61.358       109.049         2.244         0.229         1.253
  HS02004479HS02004480        14.857        26.786         0.541         0.057         0.309
  HS02004862HS02004870         7.222        12.942         0.257         0.025         0.140
  HS02004848HS02004852         2.142         3.828         0.047         0.003         0.021
  HS02004856HS02004862         4.123         7.648         0.085         0.005         0.040
  HS02004852HS02004856         2.139         3.822         0.047         0.003         0.021
  HS02004802HS02004478        60.634       102.197         4.330         0.518         2.650
  HS02004478WS02006287       121.857       211.028         6.562         0.746         3.896
  HS02004817HS02004807        56.487        93.835         4.376         0.530         2.695
  HS02004807HS02004802        61.268       103.206         4.392         0.526         2.689
  YS02001759YS02001757       124.699       210.128         2.832         0.202         1.415
  YS02001762YS02001759        65.911       111.936         1.667         0.125         0.854
  YS02001765YS02001762        65.478       111.115         1.682         0.127         0.865
  YS02001770YS02001767        63.242       107.475         1.390         0.089         0.678
  YS02001774YS02001770         3.314         5.603         0.078         0.005         0.039
  YS02001779YS02001774         2.265         3.749         0.109         0.012         0.064
  YS02001649YS02001757       177.893       292.473         3.947         0.283         1.921
  YS02001767YS02001765        65.589       111.244         1.699         0.129         0.875
  YS02006561YS02001783       263.504       440.968         7.239         0.621         3.835
  YS02001783YS02001784       263.436       440.873         7.235         0.621         3.833
  YS02001784YS02001785       270.803       452.676         7.948         0.710         4.279
  YS02001788YS02001790       271.476       453.778         8.021         0.719         4.325
  YS02001790YS02001791       272.464       455.368         8.120         0.731         4.386
  YS02001791YS02001793       272.466       455.385         8.121         0.732         4.388
  YS02001910YS02001907        92.098       151.497         3.594         0.348         2.024
  YS02001786YS02001788       271.041       453.069         7.976         0.713         4.297
  YS02001915YS02001910        91.998       151.289         3.549         0.341         1.994
  YS02001918YS02001915        48.512        76.919         2.566         0.288         1.524
  YS02001923YS02001920        28.497        44.897         0.624         0.044         0.310
  YS02001926YS02001923        28.127        44.302         0.586         0.040         0.285
  YS02001929YS02001926        27.852        43.850         0.554         0.036         0.265
  YS02001920YS02001918        48.434        76.803         2.543         0.284         1.509
  YS02001629YS02163301        31.451        51.514         0.707         0.044         0.327
  YS02001619YS02001622        35.082        57.173         0.792         0.049         0.365
  YS02001622YS02001625        34.323        56.076         0.772         0.048         0.356
  YS02001625YS02001629        33.220        54.439         0.745         0.046         0.344
  YS02163301YS02001633        31.465        51.563         0.706         0.044         0.327
  YS02163601YS02164001        89.536       145.531         1.975         0.141         0.957
  YS02164001YS02001641        89.021       144.703         1.952         0.139         0.943
  YS02001641YS02001644        89.551       145.571         1.953         0.138         0.943
  YS02001647YS02001649       155.571       253.598         3.441         0.245         1.678
  YS02006553YS02006556       191.617       319.620         5.599         0.502         3.022
  YS02006556YS02006558       191.569       319.523         5.569         0.498         3.002
  YSB6556YSB1171               7.734        14.087         0.217         0.021         0.119
  YS02001907YS02006553       191.568       319.556         5.593         0.501         3.019
  YS02006558YS02006561       263.529       441.000         7.239         0.621         3.835
  YS02001633YS02163601        90.199       146.513         1.959         0.138         0.943
  YS02001644YS02001647       157.543       256.901         3.470         0.246         1.690
  YS02001745YS02001748        49.426        82.631         1.113         0.068         0.541
  YS02001748YS02001751        49.068        82.115         1.136         0.072         0.558
  YS02001751YS02001754        48.321        80.934         1.142         0.075         0.565
  YS02001754YS02001757        49.196        82.324         1.310         0.097         0.674
  YS02001882YS02001884         0.644         1.023         0.018         0.002         0.010
  YS02001884YS02001887         2.414         3.980         0.061         0.005         0.032
  YS02001890YS02001895       100.611       169.698         2.031         0.156         1.011
  YS02001895YS02001898       100.478       169.510         2.025         0.156         1.008
  YS02001898YS02001901       100.366       169.352         2.022         0.155         1.007
  YS02001901YS02001904       100.400       169.442         2.040         0.158         1.018
  YS02001904YS02001907       101.080       170.575         2.125         0.169         1.072
  YS02001887YS02001890       101.449       170.990         2.094         0.164         1.050
  YS02001652YS02001649        44.666        74.067         1.047         0.077         0.496
  YS02001655YS02001652        45.666        75.633         1.074         0.079         0.508
  YS02001658YS02001655        45.318        75.005         0.981         0.066         0.447
  YS02001661YS02001658        46.663        77.106         1.013         0.068         0.461
  YS02001664YS02001661        46.968        77.451         1.023         0.069         0.465
  YSB1154YSB6556               7.245        13.308         0.157         0.013         0.081
  YSB1174YSB1171               5.280         9.745         0.147         0.014         0.080
  YSB1171HS02004479           14.768        26.655         0.532         0.056         0.304
  HS02004881HS02006253        14.143        26.157         0.383         0.032         0.199
  YS02001793JiankangQianchi       279.875       467.498         8.476         0.770         4.595
  YS02001757CaochengTiaoxuchi       257.121       434.209         5.474         0.382         2.656
  WSF200WS02003060           330.112       563.857        12.531         1.275         7.093
  1                         1716.079      2786.905       142.223        17.420        87.951
  CC-Pump-1                    0.000         0.000         0.000         0.000         0.000
  CC-Pump-2                    0.000         0.000         0.000         0.000         0.000
  JK-Pump-1                  241.583       404.033         7.127         0.639         3.842
  JK-Pump-2                   18.499        31.999         0.480         0.041         0.253
  XR-Pump-1                  461.931       741.040        43.106         5.364        26.869
  XR-Pump-2                  454.891       729.775        42.430         5.279        26.446
  XR-Pump-3                  337.429       541.673        31.268         3.886        19.476
  XR-Pump-4                    0.000         0.000         0.000         0.000         0.000
  

  Analysis begun on:  Sun Jul 11 16:49:51 2021
  Analysis ended on:  Sun Jul 11 16:49:52 2021
  Total elapsed time: 00:00:01