
  EPA STORM WATER MANAGEMENT MODEL - VERSION 5.1 (Build 5.3.0.dev0)
  --------------------------------------------------------------

  WARNING 04: minimum elevation drop used for Conduit WS02004404WS02004405
  WARNING 03: negative offset ignored for Link YS02001904YS02001907
  
  *********************************************************
  NOTE: The summary statistics displayed in this report are
  based on results found at every computational time step,  
  not just on results from each reporting time step.
  *********************************************************
  
  ****************
  Analysis Options
  ****************
  Flow Units ............... LPS
  Process Models:
    Rainfall/Runoff ........ YES
    RDII ................... NO
    Snowmelt ............... NO
    Groundwater ............ NO
    Flow Routing ........... YES
    Ponding Allowed ........ NO
    Water Quality .......... YES
  Infiltration Method ...... HORTON
  Flow Routing Method ...... DYNWAVE
  Surcharge Method ......... EXTRAN
  Starting Date ............ 08/28/2015 08:00:00
  Ending Date .............. 08/28/2015 15:50:00
  Antecedent Dry Days ...... 8.0
  Report Time Step ......... 00:01:00
  Wet Time Step ............ 00:01:00
  Dry Time Step ............ 00:01:00
  Routing Time Step ........ 5.00 sec
  Variable Time Step ....... YES
  Maximum Trials ........... 8
  Number of Threads ........ 4
  Head Tolerance ........... 0.001500 m
  
  
  **************************        Volume         Depth
  Runoff Quantity Continuity     hectare-m            mm
  **************************     ---------       -------
  Total Precipitation ......         2.016         4.413
  Evaporation Loss .........         0.000         0.000
  Infiltration Loss ........         0.465         1.018
  Surface Runoff ...........         1.103         2.414
  Final Storage ............         0.448         0.982
  Continuity Error (%) .....        -0.023
  
  
  **************************           COD            SS            TN            TP         NH4-N
  Runoff Quality Continuity             kg            kg            kg            kg            kg
  **************************    ----------    ----------    ----------    ----------    ----------
  Initial Buildup ..........     41378.656     70582.865      1804.177       168.684      1032.807
  Surface Buildup ..........        13.943        15.962         3.160         0.292         1.874
  Wet Deposition ...........         0.000         0.000         0.000         0.000         0.000
  Sweeping Removal .........         0.000         0.000         0.000         0.000         0.000
  Infiltration Loss ........        18.120        30.768         0.371         0.024         0.173
  BMP Removal ..............         0.000         0.000         0.000         0.000         0.000
  Surface Runoff ...........       571.546       944.399        11.858         0.756         5.575
  Remaining Buildup ........     40802.753     69623.368      1795.104       168.195      1028.932
  Continuity Error (%) .....         0.000         0.000         0.000         0.000         0.000
  
  
  **************************        Volume        Volume
  Flow Routing Continuity        hectare-m      10^6 ltr
  **************************     ---------     ---------
  Dry Weather Inflow .......         0.616         6.165
  Wet Weather Inflow .......         1.102        11.022
  Groundwater Inflow .......         0.000         0.000
  RDII Inflow ..............         0.000         0.000
  External Inflow ..........         0.102         1.024
  External Outflow .........         1.102        11.025
  Flooding Loss ............         0.155         1.550
  Evaporation Loss .........         0.000         0.000
  Exfiltration Loss ........         0.000         0.000
  Initial Stored Volume ....         0.076         0.761
  Final Stored Volume ......         0.635         6.354
  Continuity Error (%) .....         0.221
  
  
  **************************           COD            SS            TN            TP         NH4-N
  Quality Routing Continuity            kg            kg            kg            kg            kg
  **************************    ----------    ----------    ----------    ----------    ----------
  Dry Weather Inflow .......      1541.201      2465.922       147.955        18.494        92.472
  Wet Weather Inflow .......       571.377       944.148        11.854         0.756         5.573
  Groundwater Inflow .......         0.000         0.000         0.000         0.000         0.000
  RDII Inflow ..............         0.000         0.000         0.000         0.000         0.000
  External Inflow ..........       183.418       293.469        17.608         2.201        11.005
  External Outflow .........      1673.270      2703.161       143.029        17.593        88.648
  Flooding Loss ............        87.161       138.361         3.324         0.327         1.860
  Exfiltration Loss ........         0.000         0.000         0.000         0.000         0.000
  Mass Reacted .............         0.000         0.000         0.000         0.000         0.000
  Initial Stored Mass ......         0.000         0.000         0.000         0.000         0.000
  Final Stored Mass ........       530.183       853.991        30.925         3.523        18.474
  Continuity Error (%) .....         0.234         0.217         0.079         0.041         0.062
  
  
  *************************
  Highest Continuity Errors
  *************************
  Node YS02001774 (36.27%)
  Node HS02004842 (28.93%)
  Node YS02001884 (23.72%)
  Node YSB1171 (7.24%)
  Node YS02001625 (6.28%)
  
  
  ***************************
  Time-Step Critical Elements
  ***************************
  Link WS02006238WS02006235 (42.62%)
  Link WS02006280WS02006229 (24.16%)
  Link WS02003066WSF200 (9.80%)
  Link YS02001791YS02001793 (2.57%)
  Link WS02006229WS02006228 (1.65%)
  
  
  ********************************
  Highest Flow Instability Indexes
  ********************************
  Link WS02006113WS02006111 (54)
  Link WS02006256WS02006235 (12)
  Link WS02006111WS02006112 (10)
  Link YS02001641YS02001644 (10)
  Link YS02164001YS02001641 (10)
  
  
  *************************
  Routing Time Step Summary
  *************************
  Minimum Time Step           :     0.50 sec
  Average Time Step           :     3.26 sec
  Maximum Time Step           :     5.00 sec
  Percent in Steady State     :     0.00
  Average Iterations per Step :     2.64
  Percent Not Converging      :     5.27
  
  
  ***************************
  Subcatchment Runoff Summary
  ***************************
  
  ------------------------------------------------------------------------------------------------------------------------------
                            Total      Total      Total      Total     Imperv       Perv      Total       Total     Peak  Runoff
                           Precip      Runon       Evap      Infil     Runoff     Runoff     Runoff      Runoff   Runoff   Coeff
  Subcatchment                 mm         mm         mm         mm         mm         mm         mm    10^6 ltr      LPS
  ------------------------------------------------------------------------------------------------------------------------------
  sub0                       4.41       0.00       0.00       0.31       4.06       0.00       4.06        0.00     1.32   0.920
  sub1                       4.41       0.00       0.00       0.49       3.84       0.00       3.84        0.03     7.24   0.870
  sub2                       4.41       0.00       0.00       1.63       2.70       0.00       2.70        0.03     6.40   0.612
  sub3                       4.41       0.00       0.00       1.63       2.67       0.00       2.67        0.06    13.13   0.605
  sub4                       4.41       0.00       0.00       0.49       3.71       0.00       3.71        0.08    14.64   0.840
  sub5                       4.41       0.00       0.00       0.31       4.01       0.00       4.01        0.05    12.87   0.910
  sub7                       4.41       0.00       0.00       0.40       3.96       0.00       3.96        0.01     4.49   0.896
  sub8                       4.41       0.00       0.00       0.40       3.95       0.00       3.95        0.03     7.97   0.894
  sub9                       4.41       0.00       0.00       0.40       3.94       0.00       3.94        0.02     5.92   0.894
  sub10                      4.41       0.00       0.00       0.35       3.98       0.00       3.98        0.04    12.84   0.901
  sub11                      4.41       0.00       0.00       0.35       3.99       0.00       3.99        0.05    14.98   0.905
  sub12                      4.41       0.00       0.00       0.57       3.79       0.00       3.79        0.03    12.42   0.859
  sub14                      4.41       0.00       0.00       0.40       3.94       0.00       3.94        0.04    11.56   0.893
  sub15                      4.41       0.00       0.00       1.32       3.03       0.00       3.03        0.05    15.71   0.687
  sub16                      4.41       0.00       0.00       1.46       2.92       0.00       2.92        0.03    11.00   0.661
  sub17                      4.41       0.00       0.00       1.41       2.96       0.00       2.96        0.03     8.92   0.671
  sub22                      4.41       0.00       0.00       1.90       2.48       0.00       2.48        0.16    51.16   0.561
  sub23                      4.41       0.00       0.00       1.63       2.74       0.00       2.74        0.13    43.51   0.620
  sub60                      4.41       0.00       0.00       0.53       2.64       0.00       2.64        0.80    70.79   0.598
  sub61                      4.41       0.00       0.00       0.75       2.83       0.00       2.83        0.87    89.83   0.642
  sub62                      4.41       0.00       0.00       0.35       3.03       0.00       3.03        0.93    91.48   0.688
  sub63                      4.41       0.00       0.00       1.28       2.53       0.00       2.53        0.76    84.26   0.572
  sub64                      4.41       0.00       0.00       0.66       2.52       0.00       2.52        0.77    67.20   0.572
  sub65                      4.41       0.00       0.00       0.57       2.55       0.00       2.55        0.79    68.14   0.578
  sub66                      4.41       0.00       0.00       1.28       2.20       0.00       2.20        0.68    61.78   0.499
  sub67                      4.41       0.00       0.00       0.35       3.35       0.00       3.35        1.03   118.82   0.758
  sub68                      4.41       0.00       0.00       0.62       3.02       0.00       3.02        0.93    99.63   0.683
  sub69                      4.41       0.00       0.00       0.66       3.26       0.00       3.26        0.76   100.39   0.739
  sub70                      4.41       3.33       0.00       2.63       3.99       0.00       3.99        0.91    79.47   0.515
  sub71                      4.41       0.00       0.00       0.35       2.90       0.00       2.90        0.68    63.59   0.657
  sub72                      4.41       0.00       0.00       0.31       2.03       0.00       2.03        0.41    29.92   0.460
  1                          4.41       3.88       0.00       1.30       4.05       0.49       4.54        1.07    74.33   0.547
  2                          4.41       0.00       0.00       2.86       0.98       0.15       1.13        0.45    61.11   0.257
  
  
  ****************************
  Subcatchment Washoff Summary
  ****************************
  
  ------------------------------------------------------------------------------------------
                                 COD            SS            TN            TP         NH4-N
  Subcatchment                    kg            kg            kg            kg            kg
  ------------------------------------------------------------------------------------------
  sub0                         0.599         1.096         0.010         0.001         0.005
  sub1                         2.384         4.392         0.045         0.003         0.022
  sub2                         1.356         2.398         0.031         0.002         0.014
  sub3                         3.236         5.631         0.073         0.005         0.033
  sub4                         5.129         9.317         0.108         0.006         0.051
  sub5                         5.459         9.928         0.096         0.007         0.046
  sub7                         1.288         2.430         0.025         0.002         0.012
  sub8                         1.948         3.742         0.040         0.002         0.019
  sub9                         1.640         3.107         0.032         0.002         0.016
  sub10                        4.568         8.428         0.084         0.006         0.040
  sub11                        4.593         8.616         0.087         0.006         0.041
  sub12                        3.866         7.152         0.069         0.005         0.033
  sub14                        3.465         6.502         0.067         0.004         0.032
  sub15                        4.014         7.164         0.080         0.006         0.037
  sub16                        2.587         4.639         0.050         0.004         0.023
  sub17                        2.356         4.182         0.044         0.003         0.020
  sub22                       11.848        20.719         0.234         0.017         0.107
  sub23                        7.403        13.457         0.168         0.011         0.076
  sub60                       36.568        59.795         0.801         0.045         0.382
  sub61                       46.831        76.422         0.928         0.059         0.444
  sub62                       49.539        82.338         1.049         0.061         0.501
  sub63                       35.437        57.222         0.790         0.052         0.358
  sub64                       42.750        67.228         0.837         0.058         0.395
  sub65                       43.839        69.244         0.867         0.058         0.410
  sub66                       26.325        41.950         0.609         0.037         0.280
  sub67                       74.705       123.419         1.377         0.096         0.662
  sub68                       53.118        87.834         1.092         0.069         0.517
  sub69                       50.601        85.208         1.001         0.066         0.474
  sub70                       74.452       125.060         1.612         0.105         0.740
  sub71                       32.823        54.967         0.747         0.040         0.356
  sub72                       20.187        31.094         0.408         0.026         0.195
  1                           35.751        60.532         0.807         0.053         0.364
  2                            5.936         9.451         0.203         0.012         0.084
  ------------------------------------------------------------------------------------------
  System                     696.599      1154.667        14.471         0.928         6.788
  
  
  ******************
  Node Depth Summary
  ******************
  
  ---------------------------------------------------------------------------------
                                 Average  Maximum  Maximum  Time of Max    Reported
                                   Depth    Depth      HGL   Occurrence   Max Depth
  Node                 Type       Meters   Meters   Meters  days hr:min      Meters
  ---------------------------------------------------------------------------------
  WS02001211           JUNCTION     0.66     0.71     5.55     0  02:45        0.71
  WS02001212           JUNCTION     0.38     0.43     5.49     0  02:44        0.43
  WS02001213           JUNCTION     0.59     0.68     5.44     0  02:43        0.68
  WS02003069           JUNCTION     0.36     0.51     5.09     0  02:42        0.51
  WS02003072           JUNCTION     0.43     0.57     4.94     0  02:43        0.57
  WS02003073           JUNCTION     0.25     0.35     4.41     0  02:43        0.35
  WS02003060           JUNCTION     0.33     0.45     5.38     0  02:41        0.45
  WS02003066           JUNCTION     0.15     0.27     5.83     0  02:40        0.27
  WS02003059           JUNCTION     0.64     0.73     5.42     0  02:43        0.73
  WS02003067           JUNCTION     0.39     0.66     5.98     0  02:39        0.66
  WS02004401           JUNCTION     0.48     0.77     6.77     0  02:35        0.77
  WS02004402           JUNCTION     0.51     0.80     6.76     0  02:35        0.80
  WS02004403           JUNCTION     0.53     0.82     6.75     0  02:35        0.82
  WS02004404           JUNCTION     0.61     0.89     6.74     0  02:36        0.89
  WS02004406           JUNCTION     0.62     0.90     6.73     0  02:36        0.90
  WS02004409           JUNCTION     0.30     0.59     6.36     0  02:38        0.59
  WS02004410           JUNCTION     0.32     0.61     6.33     0  02:38        0.61
  WS02004411           JUNCTION     0.34     0.62     6.30     0  02:39        0.62
  WS02004412           JUNCTION     0.36     0.63     6.27     0  02:39        0.63
  WS02004413           JUNCTION     0.49     0.80     6.27     0  02:39        0.80
  WS02004405           JUNCTION     0.60     0.89     6.74     0  02:36        0.89
  WS02006109           JUNCTION     0.57     0.85     7.47     0  02:29        0.85
  WS02006110           JUNCTION     0.58     0.84     7.42     0  02:29        0.84
  WS02006111           JUNCTION     0.15     0.26     6.96     0  02:30        0.26
  WS02006112           JUNCTION     0.63     0.95     6.83     0  02:34        0.95
  WS02006113           JUNCTION     0.22     0.40     7.29     0  02:30        0.40
  WS02006115           JUNCTION     0.38     0.66     6.80     0  02:35        0.66
  WS02006116           JUNCTION     0.45     0.74     6.78     0  02:35        0.74
  WS02006230           JUNCTION     0.48     0.84     7.58     0  02:30        0.84
  WS02006231           JUNCTION     0.27     0.52     7.64     0  02:33        0.52
  WS02006232           JUNCTION     0.36     0.65     7.69     0  02:33        0.65
  WS02006234           JUNCTION     0.28     0.56     7.71     0  02:34        0.56
  WS02006235           JUNCTION     0.30     0.58     7.74     0  02:34        0.58
  WS02006238           JUNCTION     0.32     0.60     7.74     0  02:34        0.60
  WS02006240           JUNCTION     0.21     0.45     7.75     0  02:35        0.45
  WS02006242           JUNCTION     0.24     0.48     7.75     0  02:34        0.48
  WS02006243           JUNCTION     0.13     0.33     7.75     0  02:35        0.33
  WS02006245           JUNCTION     0.11     0.26     7.75     0  02:35        0.26
  WS02006247           JUNCTION     0.11     0.25     7.75     0  02:34        0.25
  WS02006248           JUNCTION     0.06     0.17     7.76     0  02:34        0.17
  WS02006249           JUNCTION     0.08     0.19     7.78     0  02:16        0.19
  WS02006239           JUNCTION     0.27     0.54     7.75     0  02:33        0.54
  WS02006251           JUNCTION     0.05     0.16     7.83     0  02:15        0.16
  WS02006252           JUNCTION     0.00     0.00     8.24     0  00:00        0.00
  WS02006253           JUNCTION     0.09     0.22     7.86     0  02:14        0.22
  WS02006256           JUNCTION     1.25     2.35     9.28     0  02:17        2.35
  WS02004138           JUNCTION     0.16     0.17     7.42     0  07:43        0.17
  WS02004139           JUNCTION     0.61     0.65     5.56     0  02:45        0.65
  WS02004407           JUNCTION     0.14     0.26     6.58     0  02:36        0.26
  WS02006228           JUNCTION     0.55     0.87     7.52     0  02:29        0.87
  WS02006229           JUNCTION     0.51     0.85     7.55     0  02:29        0.85
  WS02006280           JUNCTION     0.06     0.14     8.41     0  02:14        0.14
  WS02006284           JUNCTION     0.35     0.48     8.88     0  02:14        0.48
  WS02006287           JUNCTION     0.08     0.21     9.16     0  02:14        0.21
  WSF200               JUNCTION     0.13     0.27     5.50     0  02:39        0.27
  HS02004901           JUNCTION     0.11     0.23    10.05     0  02:12        0.23
  HS02004881           JUNCTION     0.01     0.02     9.05     0  02:14        0.02
  HS02004876           JUNCTION     0.04     0.10     9.13     0  02:13        0.10
  HS02004870           JUNCTION     0.01     0.04     9.33     0  02:14        0.04
  HS02004862           JUNCTION     0.01     0.05     9.43     0  02:15        0.05
  HS02004856           JUNCTION     0.07     0.10     9.53     0  02:14        0.10
  HS02004852           JUNCTION     0.01     0.03     9.54     0  02:15        0.03
  HS02004848           JUNCTION     0.01     0.03     9.63     0  02:13        0.03
  HS02004842           JUNCTION     0.32     0.36     9.63     0  02:13        0.36
  HS02004837           JUNCTION     0.03     0.05     9.63     0  02:13        0.05
  HS02004830           JUNCTION     0.04     0.06     9.53     0  02:14        0.06
  HS02004824           JUNCTION     0.02     0.04     9.44     0  02:16        0.04
  HS02004817           JUNCTION     0.41     0.52     9.37     0  02:15        0.52
  HS02004807           JUNCTION     0.11     0.20     9.37     0  02:15        0.20
  HS02004802           JUNCTION     0.14     0.23     9.36     0  02:15        0.23
  HS02004799           JUNCTION     0.10     0.25     9.46     0  02:13        0.25
  HS02004792           JUNCTION     0.03     0.10     9.62     0  02:12        0.10
  HS02004788           JUNCTION     0.02     0.07     9.97     0  02:13        0.07
  HS02004785           JUNCTION     0.04     0.13    10.03     0  02:13        0.13
  HS02004777           JUNCTION     0.13     0.25    10.05     0  02:12        0.25
  HS02004770           JUNCTION     0.10     0.22    10.05     0  02:12        0.22
  HS02004480           JUNCTION     0.07     0.19     9.44     0  02:13        0.19
  HS02004479           JUNCTION     0.10     0.23     9.44     0  02:13        0.23
  HS02004478           JUNCTION     0.05     0.12     9.35     0  02:14        0.12
  YS02001745           JUNCTION     0.39     0.84     8.36     0  05:49        0.84
  YS02001748           JUNCTION     0.68     1.28     8.36     0  05:49        1.28
  YS02001751           JUNCTION     0.84     1.48     8.36     0  05:49        1.48
  YS02001754           JUNCTION     1.05     1.75     8.36     0  05:49        1.75
  YS02001762           JUNCTION     1.23     1.96     8.36     0  05:48        1.96
  YS02001765           JUNCTION     1.19     1.91     8.36     0  05:48        1.91
  YS02001767           JUNCTION     1.15     1.87     8.36     0  05:48        1.87
  YS02001770           JUNCTION     1.15     1.87     8.36     0  05:48        1.87
  YS02001774           JUNCTION     1.21     1.94     8.36     0  05:48        1.94
  YS02001779           JUNCTION     0.99     1.67     8.36     0  05:48        1.67
  YS02001882           JUNCTION     0.26     0.44     7.16     0  02:47        0.44
  YS02001884           JUNCTION     0.34     0.54     7.16     0  02:46        0.54
  YS02001759           JUNCTION     1.26     2.00     8.36     0  05:48        2.00
  YS02001887           JUNCTION     0.42     0.62     7.16     0  02:46        0.62
  YS02001890           JUNCTION     0.45     0.65     7.16     0  02:46        0.65
  YS02001898           JUNCTION     0.23     0.40     7.14     0  02:47        0.40
  YS02001901           JUNCTION     0.33     0.53     7.14     0  02:48        0.53
  YS02001904           JUNCTION     0.32     0.51     7.14     0  02:48        0.51
  YS02001907           JUNCTION     0.63     0.85     7.14     0  02:48        0.85
  YS02001910           JUNCTION     0.43     0.63     7.14     0  02:47        0.63
  YS02001915           JUNCTION     0.25     0.42     7.14     0  02:47        0.42
  YS02001918           JUNCTION     0.07     0.09     7.16     0  03:03        0.09
  YS02001619           JUNCTION     0.80     1.43     8.36     0  05:37        1.43
  YS02001629           JUNCTION     1.10     1.81     8.36     0  05:37        1.81
  YS02001641           JUNCTION     1.20     1.92     8.35     0  05:37        1.92
  YS02001644           JUNCTION     1.21     1.92     8.35     0  05:37        1.92
  YS02001652           JUNCTION     1.06     1.76     8.36     0  05:49        1.76
  YS02001655           JUNCTION     0.86     1.51     8.36     0  05:49        1.51
  YS02001920           JUNCTION     0.16     0.20     7.21     0  03:02        0.20
  YS02001923           JUNCTION     0.06     0.08     7.34     0  03:01        0.08
  YS02001926           JUNCTION     0.13     0.17     7.62     0  03:01        0.17
  YS02001929           JUNCTION     0.06     0.08     7.78     0  03:01        0.08
  YS02001658           JUNCTION     0.64     1.22     8.36     0  05:49        1.22
  YS02001661           JUNCTION     0.48     0.95     8.36     0  05:49        0.95
  YS02001664           JUNCTION     0.19     0.43     8.36     0  05:48        0.43
  YS02001622           JUNCTION     0.82     1.45     8.36     0  05:37        1.45
  YS02001633           JUNCTION     1.19     1.90     8.35     0  05:37        1.90
  YS02001649           JUNCTION     1.24     1.97     8.36     0  05:49        1.97
  YS02001757           JUNCTION     1.36     2.10     8.36     0  05:48        2.10
  YS02001895           JUNCTION     0.23     0.40     7.15     0  02:47        0.40
  YS02001625           JUNCTION     1.07     1.75     8.36     0  05:37        1.75
  YS02163301           JUNCTION     1.13     1.84     8.36     0  05:37        1.84
  YS02163601           JUNCTION     1.24     1.96     8.35     0  05:37        1.96
  YS02164001           JUNCTION     1.18     1.90     8.35     0  05:37        1.89
  YS02001647           JUNCTION     1.05     1.74     8.35     0  05:49        1.74
  YSB1154              JUNCTION     0.23     0.38     9.44     0  02:13        0.38
  YSB6556              JUNCTION     0.13     0.27     9.44     0  02:13        0.27
  YSB1174              JUNCTION     0.19     0.33     9.44     0  02:12        0.33
  YSB1171              JUNCTION     0.38     0.53     9.44     0  02:13        0.53
  YS02006553           JUNCTION     0.64     0.85     7.14     0  02:48        0.85
  YS02006561           JUNCTION     0.12     0.22     6.88     0  02:48        0.22
  YS02006556           JUNCTION     0.61     0.82     7.13     0  02:48        0.82
  YS02006558           JUNCTION     0.65     0.87     7.13     0  02:48        0.87
  YS02001783           JUNCTION     0.22     0.39     6.53     0  02:48        0.39
  YS02001784           JUNCTION     0.25     0.42     6.48     0  02:48        0.42
  YS02001786           JUNCTION     0.21     0.35     6.38     0  02:48        0.35
  YS02001788           JUNCTION     0.15     0.26     6.24     0  02:48        0.26
  YS02001790           JUNCTION     0.18     0.32     5.97     0  02:49        0.32
  YS02001791           JUNCTION     0.12     0.21     5.68     0  02:51        0.21
  YS02001793           JUNCTION     0.13     0.61     5.44     0  03:42        0.59
  WSC                  OUTFALL      0.25     0.35     1.02     0  02:44        0.35
  JK-storage           STORAGE      3.80     4.59     5.39     0  03:43        4.57
  CC-storage           STORAGE      0.70     1.37     8.37     0  05:46        1.37
  XR-storage           STORAGE      7.07     7.72     5.72     0  02:57        7.72
  
  
  *******************
  Node Inflow Summary
  *******************
  
  -------------------------------------------------------------------------------------------------
                                  Maximum  Maximum                  Lateral       Total        Flow
                                  Lateral    Total  Time of Max      Inflow      Inflow     Balance
                                   Inflow   Inflow   Occurrence      Volume      Volume       Error
  Node                 Type           LPS      LPS  days hr:min    10^6 ltr    10^6 ltr     Percent
  -------------------------------------------------------------------------------------------------
  WS02001211           JUNCTION      7.35   294.08     0  06:41       0.207        7.05       0.540
  WS02001212           JUNCTION      0.00   294.81     0  03:51           0        7.01       0.275
  WS02001213           JUNCTION      0.00   295.98     0  03:51           0        6.99       0.307
  WS02003069           JUNCTION      0.32   736.01     0  02:42     0.00902        11.1       0.193
  WS02003072           JUNCTION      0.00   736.01     0  02:42           0          11       0.249
  WS02003073           JUNCTION      1.82   737.84     0  02:43      0.0514        11.1       0.262
  WS02003060           JUNCTION     16.53   735.64     0  02:41       0.466        11.1       0.189
  WS02003066           JUNCTION      0.00   429.13     0  02:40           0        3.67       0.067
  WS02003059           JUNCTION      0.00   298.28     0  03:50           0        6.97       0.536
  WS02003067           JUNCTION      0.00   429.12     0  02:39           0        3.68       0.159
  WS02004401           JUNCTION      0.00   432.52     0  02:34           0        3.83       0.374
  WS02004402           JUNCTION      0.00   432.08     0  02:34           0        3.81       0.369
  WS02004403           JUNCTION      0.00   431.53     0  02:34           0         3.8       0.350
  WS02004404           JUNCTION      0.16   431.63     0  02:34     0.00457        3.79       0.321
  WS02004406           JUNCTION      0.00   431.62     0  02:36           0        3.76       0.683
  WS02004409           JUNCTION      0.00   431.32     0  02:36           0        3.73       0.196
  WS02004410           JUNCTION      0.00   430.52     0  02:37           0        3.73       0.249
  WS02004411           JUNCTION      0.00   429.90     0  02:37           0        3.72       0.273
  WS02004412           JUNCTION      0.00   429.44     0  02:38           0        3.71       0.324
  WS02004413           JUNCTION      0.00   429.20     0  02:39           0         3.7       0.530
  WS02004405           JUNCTION      0.04   431.63     0  02:34     0.00107        3.78       0.381
  WS02006109           JUNCTION      1.23   432.50     0  02:29      0.0347        3.87       0.303
  WS02006110           JUNCTION      0.00   432.52     0  02:29           0        3.86       0.328
  WS02006111           JUNCTION      0.00   443.64     0  02:30           0        3.84       0.037
  WS02006112           JUNCTION      8.92   437.41     0  02:30      0.0254        3.87       0.485
  WS02006113           JUNCTION      0.00   432.61     0  02:30           0        3.85       0.110
  WS02006115           JUNCTION      0.00   435.30     0  02:32           0        3.85       0.304
  WS02006116           JUNCTION      0.00   433.17     0  02:32           0        3.84       0.300
  WS02006230           JUNCTION     10.28   286.82     0  02:41        0.29        2.99       0.302
  WS02006231           JUNCTION      0.00   275.74     0  02:40           0         2.7      -0.172
  WS02006232           JUNCTION      0.00   275.30     0  02:40           0         2.7       0.352
  WS02006234           JUNCTION      0.00   274.86     0  02:38           0         2.7      -0.196
  WS02006235           JUNCTION      0.00   312.48     0  02:18           0        3.07       0.266
  WS02006238           JUNCTION      0.00   220.70     0  02:18           0       0.816       0.073
  WS02006240           JUNCTION      0.00   114.23     0  02:19           0        0.53       0.365
  WS02006242           JUNCTION      0.00    97.79     0  02:20           0       0.376       0.500
  WS02006243           JUNCTION      0.00    54.28     0  02:20           0       0.255       1.874
  WS02006245           JUNCTION      0.00    39.74     0  02:17           0       0.195       2.347
  WS02006247           JUNCTION      0.00    39.78     0  02:16           0       0.162       0.279
  WS02006248           JUNCTION      0.00    39.79     0  02:16           0       0.147       0.001
  WS02006249           JUNCTION      0.00    39.86     0  02:15           0       0.145       0.452
  WS02006239           JUNCTION      0.00   134.68     0  02:18           0       0.684       0.060
  WS02006251           JUNCTION      0.08    39.93     0  02:14     0.00217       0.145       0.041
  WS02006252           JUNCTION      0.00     0.00     0  00:00           0           0       0.000 ltr
  WS02006253           JUNCTION      1.32    39.89     0  02:13     0.00329       0.143       0.108
  WS02006256           JUNCTION      0.00   300.00     0  02:17           0        3.04      -0.401
  WS02004138           JUNCTION      0.00   285.00     0  02:02           0        6.87       0.057
  WS02004139           JUNCTION      0.32   285.32     0  07:43     0.00905        6.88       0.524
  WS02004407           JUNCTION      0.00   431.39     0  02:36           0        3.74       0.097
  WS02006228           JUNCTION      0.00   431.10     0  02:29           0        3.85       0.229
  WS02006229           JUNCTION      0.00   431.14     0  02:29           0        3.86       0.294
  WS02006280           JUNCTION      0.00   204.74     0  02:14           0       0.881       0.009
  WS02006284           JUNCTION      0.10   204.72     0  02:14      0.0027       0.882       0.127
  WS02006287           JUNCTION      0.00   204.61     0  02:14           0        0.88       0.082
  WSF200               JUNCTION      0.00   429.12     0  02:40           0        3.67       0.053
  HS02004901           JUNCTION     11.00    11.00     0  02:07      0.0305      0.0307       6.075
  HS02004881           JUNCTION      4.49    38.84     0  02:13      0.0133        0.14       0.043
  HS02004876           JUNCTION      7.24    34.65     0  02:14      0.0255       0.127       0.414
  HS02004870           JUNCTION      7.97    27.60     0  02:14      0.0252       0.102       0.106
  HS02004862           JUNCTION      6.60    20.20     0  02:14      0.0308      0.0765       0.220
  HS02004856           JUNCTION      5.92    13.67     0  02:14       0.019      0.0471       3.151
  HS02004852           JUNCTION      0.00     8.16     0  02:14           0      0.0282       0.177
  HS02004848           JUNCTION     13.13    13.13     0  02:16      0.0601      0.0601       0.074
  HS02004842           JUNCTION      0.00     5.40     0  02:25           0      0.0449      40.704
  HS02004837           JUNCTION     19.19    23.84     0  02:13       0.223       0.255       0.310
  HS02004830           JUNCTION      0.15    23.98     0  02:13     0.00423       0.245       0.504
  HS02004824           JUNCTION     14.69    38.50     0  02:16      0.0787       0.323       0.168
  HS02004817           JUNCTION      0.60    39.10     0  02:16      0.0169       0.339       5.166
  HS02004807           JUNCTION     14.98    52.75     0  02:15      0.0464       0.369       1.159
  HS02004802           JUNCTION      0.00    53.01     0  02:16           0       0.365       1.124
  HS02004799           JUNCTION     11.56   129.45     0  02:12      0.0375       0.456       0.510
  HS02004792           JUNCTION     51.44   118.16     0  02:11       0.164       0.419       0.100
  HS02004788           JUNCTION     17.38    68.79     0  02:12      0.0992       0.256       0.151
  HS02004785           JUNCTION      0.15    51.85     0  02:12     0.00423       0.158       0.305
  HS02004777           JUNCTION      0.03    52.17     0  02:10    0.000846       0.159       3.374
  HS02004770           JUNCTION     43.51    53.39     0  02:09       0.131       0.159       1.982
  HS02004480           JUNCTION      0.00   152.61     0  02:13           0       0.531       0.134
  HS02004479           JUNCTION      0.00    23.67     0  02:15           0       0.088       0.836
  HS02004478           JUNCTION      0.00   204.60     0  02:14           0       0.881       0.070
  YS02001745           JUNCTION     70.80   132.30     0  03:42         0.8       0.815       1.453
  YS02001748           JUNCTION      0.04   176.08     0  03:40     0.00127       0.807       3.063
  YS02001751           JUNCTION      0.01   148.84     0  03:36     0.00031       0.769       3.167
  YS02001754           JUNCTION      0.26    85.84     0  03:36     0.00733        0.75       3.497
  YS02001762           JUNCTION      0.00   104.40     0  02:53           0       0.854       2.736
  YS02001765           JUNCTION      0.00   104.18     0  02:42           0       0.858       3.068
  YS02001767           JUNCTION      0.54   127.75     0  02:55      0.0151        0.88       4.343
  YS02001770           JUNCTION     91.63   125.77     0  02:55       0.937       0.953       3.656
  YS02001774           JUNCTION      0.00    44.91     0  02:54           0       0.073      56.909
  YS02001779           JUNCTION      0.01    41.53     0  02:54    0.000141      0.0301     111.689
  YS02001882           JUNCTION      0.00     3.74     0  02:06           0     0.00507      48.264
  YS02001884           JUNCTION      0.00    11.14     0  02:05           0      0.0203      31.096
  YS02001759           JUNCTION     89.87   194.09     0  02:54       0.874        1.69       1.469
  YS02001887           JUNCTION    119.27   119.27     0  02:36        1.04        1.06       0.678
  YS02001890           JUNCTION      0.00   118.48     0  02:37           0        1.03       0.760
  YS02001898           JUNCTION      0.00   117.92     0  02:40           0        1.02       0.209
  YS02001901           JUNCTION      0.00   117.84     0  02:42           0        1.02       0.540
  YS02001904           JUNCTION      0.00   117.24     0  02:43           0        1.02       0.501
  YS02001907           JUNCTION      0.00   211.94     0  02:49           0        2.18       1.018
  YS02001910           JUNCTION      0.00    96.38     0  02:59           0        1.17       0.868
  YS02001915           JUNCTION     63.61    95.70     0  02:58       0.685        1.18       0.383
  YS02001918           JUNCTION      0.00    32.80     0  03:02           0       0.492       0.225
  YS02001619           JUNCTION     61.78    61.78     0  02:51       0.675       0.675       1.968
  YS02001629           JUNCTION      0.00    90.23     0  03:35           0       0.593       5.432
  YS02001641           JUNCTION      0.00   134.40     0  02:52           0        1.27       1.796
  YS02001644           JUNCTION     67.24   251.80     0  05:53       0.768        2.57       1.074
  YS02001652           JUNCTION      0.00    97.32     0  02:36           0       0.692       3.622
  YS02001655           JUNCTION      0.15   133.82     0  03:01     0.00434       0.718       3.642
  YS02001920           JUNCTION      2.87    32.82     0  03:01      0.0809       0.494       0.410
  YS02001923           JUNCTION      0.04    29.95     0  03:01     0.00106       0.413       0.072
  YS02001926           JUNCTION      0.05    29.96     0  03:01     0.00147       0.414       0.511
  YS02001929           JUNCTION     29.92    29.92     0  03:01       0.413       0.413       0.070
  YS02001658           JUNCTION      0.00   142.71     0  03:45           0       0.742       3.387
  YS02001661           JUNCTION      0.00   102.50     0  03:45           0       0.763       2.955
  YS02001664           JUNCTION     84.26    84.26     0  02:38       0.764       0.764       0.672
  YS02001622           JUNCTION      0.00    85.27     0  02:57           0       0.663       5.173
  YS02001633           JUNCTION     68.34   134.87     0  03:05        0.79        1.33       2.526
  YS02001649           JUNCTION      0.00   299.70     0  02:56           0        2.64       1.513
  YS02001757           JUNCTION      0.00   505.76     0  02:54           0        4.48       2.156
  YS02001895           JUNCTION      0.00   118.02     0  02:40           0        1.02       0.362
  YS02001625           JUNCTION      0.00    91.47     0  03:35           0       0.631       6.696
  YS02163301           JUNCTION      0.00    73.81     0  02:53           0       0.571       4.621
  YS02163601           JUNCTION      0.11   139.63     0  02:52      0.0031         1.3       2.449
  YS02164001           JUNCTION      0.00   139.60     0  02:52           0        1.28       1.808
  YS02001647           JUNCTION      0.00   200.64     0  02:55           0         2.1       1.429
  YSB1154              JUNCTION     12.87    12.87     0  02:11      0.0455      0.0467       3.189
  YSB6556              JUNCTION      0.00    12.77     0  02:14           0      0.0477       2.679
  YSB1174              JUNCTION     12.42    12.42     0  02:07      0.0331       0.034       3.923
  YSB1171              JUNCTION      0.00    23.69     0  02:13           0      0.0873       7.808
  YS02006553           JUNCTION      0.00   212.00     0  02:50           0        2.17       0.661
  YS02006561           JUNCTION      0.00   311.36     0  02:48           0        3.07       0.021
  YS02006556           JUNCTION      0.00   212.09     0  02:51           0        2.17       0.476
  YS02006558           JUNCTION    100.51   311.38     0  02:48       0.952         3.1       0.146
  YS02001783           JUNCTION      0.00   311.36     0  02:48           0        3.07       0.049
  YS02001784           JUNCTION      1.06   312.42     0  02:48      0.0299         3.1       0.081
  YS02001786           JUNCTION      0.06   312.46     0  02:48     0.00159         3.1       0.078
  YS02001788           JUNCTION      0.07   312.52     0  02:48       0.002         3.1       0.046
  YS02001790           JUNCTION      0.15   312.68     0  02:48     0.00437         3.1       0.056
  YS02001791           JUNCTION      0.00   312.67     0  02:49           0         3.1       0.023
  YS02001793           JUNCTION      0.00   462.59     0  02:21           0        3.13       0.263
  WSC                  OUTFALL       0.00   737.86     0  02:44           0          11       0.000
  JK-storage           STORAGE       0.00   822.83     0  02:21           0        3.27       0.107
  CC-storage           STORAGE       0.00   502.35     0  02:54           0        3.92       1.686
  XR-storage           STORAGE     326.60   326.60     0  02:51        7.16        7.76      -0.001
  
  
  **********************
  Node Surcharge Summary
  **********************
  
  Surcharging occurs when water rises above the top of the highest conduit.
  ---------------------------------------------------------------------
                                               Max. Height   Min. Depth
                                   Hours       Above Crown    Below Rim
  Node                 Type      Surcharged         Meters       Meters
  ---------------------------------------------------------------------
  WS02006109           JUNCTION        0.38          0.035        1.785
  WS02006256           JUNCTION        5.67          2.050        0.000
  WS02006228           JUNCTION        0.35          0.038        2.162
  YS02001748           JUNCTION        3.00          0.203        0.987
  YS02001751           JUNCTION        3.86          0.481        0.719
  YS02001754           JUNCTION        4.39          0.702        0.448
  YS02001762           JUNCTION        5.13          0.960        0.190
  YS02001765           JUNCTION        4.97          0.910        0.190
  YS02001767           JUNCTION        4.86          0.871        0.159
  YS02001770           JUNCTION        4.75          0.836        0.084
  YS02001774           JUNCTION        5.08          0.939        0.111
  YS02001779           JUNCTION        4.30          0.675        0.005
  YS02001759           JUNCTION        5.21          0.996        0.214
  YS02001619           JUNCTION        3.73          0.427        0.183
  YS02001629           JUNCTION        3.73          0.427        0.043
  YS02001641           JUNCTION        5.04          0.916        0.184
  YS02001644           JUNCTION        5.05          0.920        0.000
  YS02001652           JUNCTION        4.47          0.732        0.398
  YS02001655           JUNCTION        3.92          0.508        0.692
  YS02001658           JUNCTION        3.06          0.216        1.084
  YS02001622           JUNCTION        3.80          0.452        0.168
  YS02001633           JUNCTION        4.92          0.881        0.179
  YS02001649           JUNCTION        5.16          0.968        0.082
  YS02001757           JUNCTION        5.38          1.099        0.111
  YS02001625           JUNCTION        4.54          0.752        0.028
  YS02163301           JUNCTION        4.80          0.838        0.192
  YS02163601           JUNCTION        5.15          0.956        0.124
  YS02164001           JUNCTION        4.98          0.895        0.205
  YS02001647           JUNCTION        4.52          0.745        0.155
  
  
  *********************
  Node Flooding Summary
  *********************
  
  Flooding refers to all water that overflows a node, whether it ponds or not.
  --------------------------------------------------------------------------
                                                             Total   Maximum
                                 Maximum   Time of Max       Flood    Ponded
                        Hours       Rate    Occurrence      Volume     Depth
  Node                 Flooded       LPS   days hr:min    10^6 ltr    Meters
  --------------------------------------------------------------------------
  WS02006256              2.82    253.97      0  02:17       0.481     0.000
  YS02001644              2.21    251.79      0  05:53       0.994     0.000
  XR-storage              1.12     41.29      0  02:57       0.076     0.000
  
  
  **********************
  Storage Volume Summary
  **********************
  
  --------------------------------------------------------------------------------------------------
                         Average     Avg  Evap Exfil       Maximum     Max    Time of Max    Maximum
                          Volume    Pcnt  Pcnt  Pcnt        Volume    Pcnt     Occurrence    Outflow
  Storage Unit           1000 m3    Full  Loss  Loss       1000 m3    Full    days hr:min        LPS
  --------------------------------------------------------------------------------------------------
  JK-storage               0.191      66     0     0         0.230      79       0  03:43     505.71
  CC-storage               1.949      12     0     0         3.808      24       0  05:46      88.84
  XR-storage               0.848      92     0     0         0.926     100       0  02:57     285.00
  
  
  ***********************
  Outfall Loading Summary
  ***********************
  
  ---------------------------------------------------------------------------------------------------------------------------------
                         Flow       Avg       Max       Total         Total         Total         Total         Total         Total
                         Freq      Flow      Flow      Volume           COD            SS            TN            TP         NH4-N
  Outfall Node           Pcnt       LPS       LPS    10^6 ltr            kg            kg            kg            kg            kg
  ---------------------------------------------------------------------------------------------------------------------------------
  WSC                   99.99    428.88    737.86      11.025      1673.416      2703.394       143.043        17.594        88.657
  ---------------------------------------------------------------------------------------------------------------------------------
  System                99.99    428.88    737.86      11.025      1673.416      2703.394       143.043        17.594        88.657
  
  
  ********************
  Link Flow Summary
  ********************
  
  -----------------------------------------------------------------------------
                                 Maximum  Time of Max   Maximum    Max/    Max/
                                  |Flow|   Occurrence   |Veloc|    Full    Full
  Link                 Type          LPS  days hr:min     m/sec    Flow   Depth
  -----------------------------------------------------------------------------
  WS02003066WSF200     CONDUIT    429.12     0  02:40      2.62    0.07    0.20
  WS02006287WS02006284 CONDUIT    204.63     0  02:14      1.62    0.09    0.22
  WS02006284WS02006280 CONDUIT    204.74     0  02:14      1.86    0.09    0.20
  WS02006280WS02006229 CONDUIT    204.74     0  02:15      2.99    0.04    0.14
  WS02006229WS02006228 CONDUIT    431.10     0  02:29      0.86    1.43    1.00
  WS02006256WS02006235 CONDUIT    288.27     0  07:33      4.19    3.05    1.00
  WS02006253WS02006251 CONDUIT     39.86     0  02:14      0.49    0.12    0.27
  WS02006252WS02006251 CONDUIT      0.00     0  00:00      0.00    0.00    0.00
  WS02006251WS02006249 CONDUIT     39.86     0  02:15      0.54    0.11    0.25
  WS02006249WS02006248 CONDUIT     39.79     0  02:16      0.64    0.22    0.23
  WS02006248WS02006247 CONDUIT     39.78     0  02:16      0.62    0.09    0.29
  WS02006247WS02006245 CONDUIT     39.74     0  02:17      0.56    0.32    0.36
  WS02006245WS02006243 CONDUIT     41.32     0  02:20      0.70    0.12    0.41
  WS02006243WS02006242 CONDUIT     60.92     0  03:39      0.56    0.13    0.55
  WS02006242WS02006240 CONDUIT     83.03     0  03:38      0.71    0.33    0.66
  WS02006240WS02006239 CONDUIT    105.23     0  03:37      0.75    0.33    0.68
  WS02006239WS02006238 CONDUIT    130.75     0  03:37      0.86    0.42    0.80
  WS02006238WS02006235 CONDUIT    189.07     0  04:45      1.29    0.42    0.84
  WS02006235WS02006234 CONDUIT    274.86     0  02:38      1.13    2.90    0.79
  WS02006234WS02006232 CONDUIT    275.30     0  02:40      0.99    0.56    0.86
  WS02006232WS02006231 CONDUIT    275.74     0  02:40      0.86    0.58    0.83
  WS02006231WS02006230 CONDUIT    276.54     0  02:41      1.21    4.19    0.70
  WS02006230WS02006229 CONDUIT    288.09     0  02:40      0.75    6.41    1.00
  WS02006228WS02006109 CONDUIT    431.27     0  02:29      0.86    1.88    1.00
  WS02006116WS02004401 CONDUIT    432.52     0  02:34      0.68    0.60    0.76
  WS02006115WS02006116 CONDUIT    433.17     0  02:32      0.80    0.56    0.67
  WS02006113WS02006111 CONDUIT    443.64     0  02:30      2.28    0.53    0.41
  WS02006112WS02006115 CONDUIT    435.30     0  02:32      0.66    0.26    0.80
  WS02006111WS02006112 CONDUIT    432.76     0  02:30      1.24    0.21    0.65
  WS02006110WS02006113 CONDUIT    432.61     0  02:30      1.07    0.39    0.75
  WS02006109WS02006110 CONDUIT    432.52     0  02:29      0.87    0.83    0.96
  WS02004411WS02004412 CONDUIT    429.44     0  02:38      0.87    0.61    0.63
  WS02004401WS02004402 CONDUIT    432.08     0  02:34      0.66    0.52    0.78
  WS02004413WS02003067 CONDUIT    429.12     0  02:39      0.98    0.18    0.54
  WS02004412WS02004413 CONDUIT    429.20     0  02:39      0.78    0.29    0.71
  WS02004410WS02004411 CONDUIT    429.90     0  02:37      0.85    0.59    0.61
  WS02004409WS02004410 CONDUIT    430.52     0  02:37      0.89    0.56    0.60
  WS02004407WS02004409 CONDUIT    431.32     0  02:36      1.39    0.15    0.43
  WS02004406WS02004407 CONDUIT    431.39     0  02:36      0.91    0.19    0.58
  WS02004405WS02004406 CONDUIT    431.62     0  02:36      0.58    0.85    0.89
  WS02004404WS02004405 CONDUIT    431.60     0  02:34      0.58    4.23    0.89
  WS02004403WS02004404 CONDUIT    431.47     0  02:34      0.60    0.31    0.86
  WS02004402WS02004403 CONDUIT    431.53     0  02:34      0.64    0.62    0.81
  WS02004139WS02001211 CONDUIT    286.74     0  06:41      0.54    0.36    0.53
  WS02004138WS02004139 CONDUIT    285.00     0  07:43      2.39    0.06    0.38
  WS02003067WS02003066 CONDUIT    429.13     0  02:40      1.06    0.14    0.39
  WS02001213WS02003059 CONDUIT    298.28     0  03:50      0.59    0.49    0.70
  WS02001212WS02001213 CONDUIT    295.98     0  03:51      1.19    0.46    0.39
  WS02001211WS02001212 CONDUIT    294.81     0  03:51      0.67    0.23    0.57
  WS02003072WS02003073 CONDUIT    736.02     0  02:43      1.59    1.59    0.43
  WS02003069WS02003072 CONDUIT    736.01     0  02:42      1.50    0.35    0.45
  WS02003060WS02003069 CONDUIT    735.69     0  02:42      1.76    0.29    0.40
  WS02003059WS02003060 CONDUIT    301.62     0  03:50      0.82    0.20    0.59
  HS02004901HS02004770 CONDUIT     10.18     0  02:11      0.05    0.04    0.32
  HS02004876HS02004881 CONDUIT     34.73     0  02:14      0.56    0.37    0.09
  HS02004870HS02004876 CONDUIT     27.58     0  02:14      0.39    0.02    0.10
  HS02004842HS02004848 CONDUIT      5.40     0  02:25      0.03    0.00    0.27
  HS02004837HS02004842 CONDUIT      5.60     0  02:26      0.42    0.00    0.29
  HS02004830HS02004837 CONDUIT     23.83     0  02:13      0.44    0.02    0.08
  HS02004824HS02004830 CONDUIT     23.97     0  02:14      0.48    0.03    0.07
  HS02004817HS02004824 CONDUIT     38.50     0  02:16      0.17    0.02    0.40
  HS02004770HS02004777 CONDUIT     52.14     0  02:10      0.23    0.10    0.33
  HS02004799HS02004480 CONDUIT    129.25     0  02:12      0.59    0.16    0.31
  HS02004792HS02004799 CONDUIT    118.09     0  02:12      0.68    0.07    0.25
  HS02004788HS02004792 CONDUIT     68.73     0  02:13      0.83    0.05    0.12
  HS02004785HS02004788 CONDUIT     51.75     0  02:13      0.51    0.39    0.14
  HS02004777HS02004785 CONDUIT     51.70     0  02:12      0.27    0.06    0.27
  HS02004480HS02004478 CONDUIT    152.56     0  02:13      0.96    0.64    0.23
  HS02004479HS02004480 CONDUIT     23.91     0  02:16      0.15    0.02    0.31
  HS02004862HS02004870 CONDUIT     20.15     0  02:15      0.47    0.02    0.06
  HS02004848HS02004852 CONDUIT      8.16     0  02:14      0.31    0.01    0.04
  HS02004856HS02004862 CONDUIT     13.63     0  02:14      0.34    0.01    0.06
  HS02004852HS02004856 CONDUIT      8.11     0  02:15      0.12    0.01    0.09
  HS02004802HS02004478 CONDUIT     53.41     0  02:17      0.30    0.05    0.26
  HS02004478WS02006287 CONDUIT    204.61     0  02:14      1.31    0.06    0.17
  HS02004817HS02004807 CONDUIT     39.63     0  02:18      0.11    0.02    0.51
  HS02004807HS02004802 CONDUIT     53.01     0  02:16      0.25    0.10    0.30
  YS02001759YS02001757 CONDUIT    195.31     0  02:53      0.25    0.14    1.00
  YS02001762YS02001759 CONDUIT    105.72     0  02:54      0.17    0.12    1.00
  YS02001765YS02001762 CONDUIT    104.40     0  02:53      0.24    0.10    1.00
  YS02001770YS02001767 CONDUIT    127.22     0  02:55      0.30    0.50    1.00
  YS02001774YS02001770 CONDUIT     44.91     0  02:54      0.13    0.03    1.00
  YS02001779YS02001774 CONDUIT     41.52     0  02:54      0.08    0.02    1.00
  YS02001649YS02001757 CONDUIT    299.88     0  02:56      0.38    0.18    1.00
  YS02001767YS02001765 CONDUIT    104.18     0  02:42      0.27    0.13    1.00
  YS02006561YS02001783 CONDUIT    311.36     0  02:48      1.78    0.16    0.38
  YS02001783YS02001784 CONDUIT    311.36     0  02:48      1.23    0.43    0.50
  YS02001784YS02001785 CONDUIT    312.40     0  02:48      1.31    0.73    0.48
  YS02001788YS02001790 CONDUIT    312.52     0  02:48      1.87    0.23    0.37
  YS02001790YS02001791 CONDUIT    312.67     0  02:49      2.21    0.34    0.33
  YS02001791YS02001793 CONDUIT    332.65     0  02:56      4.39    0.14    0.49
  YS02001910YS02001907 CONDUIT     96.62     0  03:00      0.49    0.05    0.74
  YS02001786YS02001788 CONDUIT    312.45     0  02:48      1.74    0.60    0.39
  YS02001915YS02001910 CONDUIT     96.38     0  02:59      0.44    0.05    0.53
  YS02001918YS02001915 CONDUIT     32.79     0  03:03      0.44    0.02    0.26
  YS02001923YS02001920 CONDUIT     29.95     0  03:01      0.44    0.01    0.14
  YS02001926YS02001923 CONDUIT     29.91     0  03:01      0.49    0.04    0.13
  YS02001929YS02001926 CONDUIT     29.91     0  03:01      0.51    0.01    0.13
  YS02001920YS02001918 CONDUIT     32.80     0  03:02      0.46    0.03    0.15
  YS02001629YS02163301 CONDUIT     73.81     0  02:53      0.11    0.09    1.00
  YS02001619YS02001622 CONDUIT     85.27     0  02:57      0.64    0.13    1.00
  YS02001622YS02001625 CONDUIT     91.47     0  03:35      0.25    0.05    1.00
  YS02001625YS02001629 CONDUIT     90.23     0  03:35      0.25    0.04    1.00
  YS02163301YS02001633 CONDUIT     68.77     0  03:05      0.09    0.06    1.00
  YS02163601YS02164001 CONDUIT    139.60     0  02:52      0.18    0.12    1.00
  YS02164001YS02001641 CONDUIT    134.40     0  02:52      0.17    0.18    1.00
  YS02001641YS02001644 CONDUIT    134.81     0  02:55      0.17    0.44    1.00
  YS02001647YS02001649 CONDUIT    226.86     0  03:05      0.29    0.12    1.00
  YS02006553YS02006556 CONDUIT    212.09     0  02:51      0.31    0.18    0.82
  YS02006556YS02006558 CONDUIT    212.11     0  02:51      0.30    0.17    0.84
  YSB6556YSB1171       CONDUIT     13.01     0  02:15      0.06    0.01    0.57
  YS02001907YS02006553 CONDUIT    212.00     0  02:50      0.25    0.25    0.93
  YS02006558YS02006561 CONDUIT    311.36     0  02:48      2.28    0.69    0.49
  YS02001633YS02163601 CONDUIT    139.52     0  02:52      0.18    0.15    1.00
  YS02001644YS02001647 CONDUIT    200.64     0  02:55      0.26    0.12    1.00
  YS02001745YS02001748 CONDUIT    176.03     0  03:40      1.40    0.07    0.92
  YS02001748YS02001751 CONDUIT    148.83     0  03:36      1.09    0.08    1.00
  YS02001751YS02001754 CONDUIT     85.58     0  03:36      0.95    0.04    1.00
  YS02001754YS02001757 CONDUIT    107.86     0  02:52      0.33    0.04    1.00
  YS02001882YS02001884 CONDUIT      3.74     0  02:06      0.07    0.00    0.46
  YS02001884YS02001887 CONDUIT     11.14     0  02:05      0.05    0.01    0.55
  YS02001890YS02001895 CONDUIT    118.02     0  02:40      0.29    0.05    0.53
  YS02001895YS02001898 CONDUIT    117.92     0  02:40      0.46    0.20    0.39
  YS02001898YS02001901 CONDUIT    117.84     0  02:42      0.33    0.08    0.47
  YS02001901YS02001904 CONDUIT    117.24     0  02:43      0.29    0.18    0.52
  YS02001904YS02001907 CONDUIT    117.46     0  02:44      0.21    0.04    0.68
  YS02001887YS02001890 CONDUIT    118.48     0  02:37      0.24    0.20    0.61
  YS02001652YS02001649 CONDUIT    121.50     0  02:47      0.29    0.06    1.00
  YS02001655YS02001652 CONDUIT     97.32     0  02:36      1.01    0.05    1.00
  YS02001658YS02001655 CONDUIT    133.66     0  03:01      1.26    0.06    1.00
  YS02001661YS02001658 CONDUIT    142.71     0  03:45      1.45    0.06    0.94
  YS02001664YS02001661 CONDUIT     84.26     0  02:38      1.11    0.03    0.69
  YSB1154YSB6556       CONDUIT     12.77     0  02:14      0.19    0.02    0.46
  YSB1174YSB1171       CONDUIT     11.63     0  02:08      0.05    0.02    0.58
  YSB1171HS02004479    CONDUIT     23.67     0  02:15      0.54    0.02    0.45
  HS02004881HS02006253 CONDUIT     38.84     0  02:14      1.66    0.01    0.03
  YS02001793JiankangQianchi CONDUIT    822.83     0  02:21      1.66    0.07    0.81
  YS02001757CaochengTiaoxuchi CONDUIT    502.35     0  02:54      0.97    0.22    1.00
  WSF200WS02003060     CONDUIT    429.17     0  02:40      1.52    0.10    0.30
  1                    CONDUIT    737.86     0  02:44      3.06    0.26    0.35
  CC-Pump-1            PUMP         0.00     0  00:00              0.00
  CC-Pump-2            PUMP         0.00     0  00:00              0.00
  JK-Pump-1            PUMP       300.00     0  02:17              1.00
  JK-Pump-2            PUMP         0.00     0  00:00              0.00
  XR-Pump-1            PUMP        95.00     0  00:00              1.00
  XR-Pump-2            PUMP        95.00     0  00:25              1.00
  XR-Pump-3            PUMP        95.00     0  02:02              1.00
  XR-Pump-4            PUMP         0.00     0  00:00              0.00
  
  
  ***************************
  Flow Classification Summary
  ***************************
  
  -------------------------------------------------------------------------------------
                      Adjusted    ---------- Fraction of Time in Flow Class ---------- 
                       /Actual         Up    Down  Sub   Sup   Up    Down  Norm  Inlet 
  Conduit               Length    Dry  Dry   Dry   Crit  Crit  Crit  Crit  Ltd   Ctrl  
  -------------------------------------------------------------------------------------
  WS02003066WSF200        1.00   0.23  0.00  0.00  0.00  0.76  0.00  0.00  0.70  0.00
  WS02006287WS02006284    1.00   0.07  0.06  0.00  0.55  0.32  0.00  0.00  0.78  0.00
  WS02006284WS02006280    1.00   0.09  0.00  0.00  0.00  0.00  0.00  0.91  0.00  0.00
  WS02006280WS02006229    1.00   0.09  0.00  0.00  0.00  0.00  0.00  0.91  0.00  0.00
  WS02006229WS02006228    1.00   0.00  0.00  0.00  0.99  0.00  0.00  0.01  0.00  0.00
  WS02006256WS02006235    1.00   0.15  0.00  0.00  0.84  0.02  0.00  0.00  0.03  0.00
  WS02006253WS02006251    1.00   0.03  0.04  0.00  0.91  0.00  0.01  0.00  0.00  0.00
  WS02006252WS02006251    1.00   1.00  0.00  0.00  0.00  0.00  0.00  0.00  0.00  0.00
  WS02006251WS02006249    1.00   0.00  0.00  0.00  1.00  0.00  0.00  0.00  0.92  0.00
  WS02006249WS02006248    1.00   0.00  0.01  0.00  0.36  0.00  0.63  0.00  0.00  0.00
  WS02006248WS02006247    1.00   0.01  0.00  0.00  0.95  0.00  0.00  0.04  0.60  0.00
  WS02006247WS02006245    1.00   0.02  0.00  0.00  0.92  0.00  0.00  0.06  0.00  0.00
  WS02006245WS02006243    1.00   0.02  0.00  0.00  0.84  0.00  0.00  0.14  0.02  0.00
  WS02006243WS02006242    1.00   0.03  0.00  0.00  0.88  0.00  0.00  0.09  0.41  0.00
  WS02006242WS02006240    1.00   0.03  0.09  0.00  0.87  0.00  0.01  0.00  0.01  0.00
  WS02006240WS02006239    1.00   0.12  0.00  0.00  0.76  0.00  0.00  0.12  0.05  0.00
  WS02006239WS02006238    1.00   0.12  0.00  0.00  0.85  0.00  0.00  0.03  0.01  0.00
  WS02006238WS02006235    1.00   0.12  0.02  0.00  0.85  0.00  0.00  0.00  0.00  0.00
  WS02006235WS02006234    1.00   0.16  0.00  0.00  0.77  0.00  0.06  0.00  0.00  0.00
  WS02006234WS02006232    1.00   0.17  0.00  0.00  0.83  0.00  0.00  0.00  0.01  0.00
  WS02006232WS02006231    1.00   0.17  0.02  0.00  0.80  0.00  0.01  0.00  0.01  0.00
  WS02006231WS02006230    1.00   0.19  0.00  0.00  0.25  0.00  0.56  0.00  0.00  0.00
  WS02006230WS02006229    1.00   0.00  0.00  0.00  0.98  0.00  0.00  0.02  0.01  0.00
  WS02006228WS02006109    1.00   0.00  0.00  0.00  1.00  0.00  0.00  0.00  0.01  0.00
  WS02006116WS02004401    1.00   0.07  0.00  0.00  0.93  0.00  0.00  0.00  0.01  0.00
  WS02006115WS02006116    1.00   0.07  0.00  0.00  0.85  0.00  0.00  0.07  0.00  0.00
  WS02006113WS02006111    1.00   0.04  0.00  0.00  0.02  0.94  0.00  0.00  0.27  0.00
  WS02006112WS02006115    1.00   0.05  0.03  0.00  0.92  0.00  0.00  0.00  0.00  0.00
  WS02006111WS02006112    1.00   0.05  0.00  0.00  0.94  0.00  0.00  0.01  0.92  0.00
  WS02006110WS02006113    1.00   0.01  0.03  0.00  0.96  0.00  0.00  0.00  0.00  0.00
  WS02006109WS02006110    1.00   0.00  0.01  0.00  0.98  0.00  0.01  0.00  0.00  0.00
  WS02004411WS02004412    1.00   0.19  0.00  0.00  0.81  0.00  0.00  0.00  0.00  0.00
  WS02004401WS02004402    1.00   0.07  0.00  0.00  0.93  0.00  0.00  0.00  0.04  0.00
  WS02004413WS02003067    1.00   0.20  0.03  0.00  0.00  0.00  0.78  0.00  0.00  0.00
  WS02004412WS02004413    1.00   0.19  0.00  0.00  0.80  0.01  0.00  0.00  0.00  0.00
  WS02004410WS02004411    1.00   0.19  0.00  0.00  0.81  0.00  0.00  0.00  0.00  0.00
  WS02004409WS02004410    1.00   0.19  0.00  0.00  0.81  0.00  0.00  0.00  0.00  0.00
  WS02004407WS02004409    1.00   0.18  0.00  0.00  0.80  0.02  0.00  0.00  0.73  0.00
  WS02004406WS02004407    1.00   0.00  0.18  0.00  0.82  0.00  0.00  0.00  0.00  0.00
  WS02004405WS02004406    1.00   0.00  0.00  0.00  1.00  0.00  0.00  0.00  0.04  0.00
  WS02004404WS02004405    1.00   0.00  0.00  0.00  1.00  0.00  0.00  0.00  0.02  0.00
  WS02004403WS02004404    1.00   0.00  0.08  0.00  0.92  0.00  0.00  0.00  0.04  0.00
  WS02004402WS02004403    1.00   0.07  0.00  0.00  0.93  0.00  0.00  0.00  0.00  0.00
  WS02004139WS02001211    1.00   0.00  0.00  0.00  1.00  0.00  0.00  0.00  0.00  0.00
  WS02004138WS02004139    1.00   0.00  0.00  0.00  0.99  0.01  0.00  0.00  1.00  0.00
  WS02003067WS02003066    1.00   0.22  0.01  0.00  0.77  0.00  0.00  0.00  0.00  0.00
  WS02001213WS02003059    1.00   0.00  0.00  0.00  0.99  0.00  0.00  0.00  0.00  0.00
  WS02001212WS02001213    1.00   0.00  0.00  0.00  0.35  0.00  0.65  0.00  0.00  0.00
  WS02001211WS02001212    1.00   0.00  0.00  0.00  1.00  0.00  0.00  0.00  0.00  0.00
  WS02003072WS02003073    1.00   0.00  0.00  0.00  0.00  0.00  0.00  1.00  0.00  0.00
  WS02003069WS02003072    1.00   0.00  0.00  0.00  1.00  0.00  0.00  0.00  0.43  0.00
  WS02003060WS02003069    1.00   0.00  0.00  0.00  0.98  0.02  0.00  0.00  0.28  0.00
  WS02003059WS02003060    1.00   0.00  0.00  0.00  1.00  0.00  0.00  0.00  0.02  0.00
  HS02004901HS02004770    1.00   0.09  0.00  0.00  0.91  0.00  0.00  0.00  0.02  0.00
  HS02004876HS02004881    1.00   0.01  0.00  0.00  0.99  0.00  0.00  0.00  0.00  0.00
  HS02004870HS02004876    1.00   0.00  0.00  0.00  0.99  0.01  0.00  0.00  0.95  0.00
  HS02004842HS02004848    1.00   0.00  0.09  0.00  0.91  0.00  0.00  0.00  0.67  0.00
  HS02004837HS02004842    1.00   0.00  0.00  0.00  1.00  0.00  0.00  0.00  0.11  0.00
  HS02004830HS02004837    1.00   0.00  0.00  0.00  1.00  0.00  0.00  0.00  0.99  0.00
  HS02004824HS02004830    1.00   0.00  0.00  0.00  1.00  0.00  0.00  0.00  0.00  0.00
  HS02004817HS02004824    1.00   0.00  0.00  0.00  1.00  0.00  0.00  0.00  1.00  0.00
  HS02004770HS02004777    1.00   0.00  0.09  0.00  0.91  0.00  0.00  0.00  0.06  0.00
  HS02004799HS02004480    1.00   0.00  0.02  0.00  0.87  0.00  0.11  0.00  0.00  0.00
  HS02004792HS02004799    1.00   0.00  0.00  0.00  0.99  0.01  0.00  0.00  0.98  0.00
  HS02004788HS02004792    1.00   0.00  0.00  0.00  0.99  0.01  0.00  0.00  0.98  0.00
  HS02004785HS02004788    1.00   0.00  0.00  0.00  1.00  0.00  0.00  0.00  0.00  0.00
  HS02004777HS02004785    1.00   0.00  0.00  0.00  1.00  0.00  0.00  0.00  0.19  0.00
  HS02004480HS02004478    1.00   0.10  0.00  0.00  0.58  0.00  0.00  0.31  0.00  0.00
  HS02004479HS02004480    1.00   0.02  0.00  0.00  0.98  0.00  0.00  0.00  0.16  0.00
  HS02004862HS02004870    1.00   0.00  0.00  0.00  1.00  0.00  0.00  0.00  0.05  0.00
  HS02004848HS02004852    1.00   0.09  0.00  0.00  0.91  0.00  0.00  0.00  0.71  0.00
  HS02004856HS02004862    1.00   0.00  0.16  0.00  0.84  0.00  0.00  0.00  0.76  0.00
  HS02004852HS02004856    1.00   0.09  0.03  0.00  0.89  0.00  0.00  0.00  0.82  0.00
  HS02004802HS02004478    1.00   0.09  0.02  0.00  0.89  0.00  0.00  0.00  0.00  0.00
  HS02004478WS02006287    1.00   0.12  0.00  0.00  0.78  0.10  0.00  0.00  0.78  0.00
  HS02004817HS02004807    1.00   0.00  0.09  0.00  0.91  0.00  0.00  0.00  0.00  0.00
  HS02004807HS02004802    1.00   0.09  0.00  0.00  0.90  0.00  0.00  0.01  0.01  0.00
  YS02001759YS02001757    1.00   0.00  0.00  0.00  1.00  0.00  0.00  0.00  0.18  0.00
  YS02001762YS02001759    1.00   0.00  0.00  0.00  1.00  0.00  0.00  0.00  0.04  0.00
  YS02001765YS02001762    1.00   0.00  0.00  0.00  1.00  0.00  0.00  0.00  0.21  0.00
  YS02001770YS02001767    1.00   0.00  0.00  0.00  1.00  0.00  0.00  0.00  0.00  0.00
  YS02001774YS02001770    1.00   0.00  0.12  0.00  0.88  0.00  0.00  0.00  0.05  0.00
  YS02001779YS02001774    1.00   0.00  0.00  0.00  1.00  0.00  0.00  0.00  0.25  0.00
  YS02001649YS02001757    1.00   0.00  0.00  0.00  1.00  0.00  0.00  0.00  0.19  0.00
  YS02001767YS02001765    1.00   0.00  0.00  0.00  1.00  0.00  0.00  0.00  0.01  0.00
  YS02006561YS02001783    1.00   0.17  0.00  0.00  0.00  0.83  0.00  0.00  0.74  0.00
  YS02001783YS02001784    1.00   0.00  0.17  0.00  0.83  0.00  0.00  0.00  0.00  0.00
  YS02001784YS02001785    1.00   0.00  0.00  0.00  1.00  0.00  0.00  0.00  0.24  0.00
  YS02001788YS02001790    1.00   0.00  0.00  0.00  0.18  0.82  0.00  0.00  0.77  0.00
  YS02001790YS02001791    1.00   0.00  0.00  0.00  0.01  0.99  0.00  0.00  0.55  0.00
  YS02001791YS02001793    1.00   0.00  0.00  0.00  0.12  0.88  0.00  0.00  0.23  0.00
  YS02001910YS02001907    1.00   0.00  0.00  0.00  0.98  0.00  0.00  0.02  0.13  0.00
  YS02001786YS02001788    1.00   0.00  0.00  0.00  0.19  0.81  0.00  0.00  0.00  0.00
  YS02001915YS02001910    1.00   0.00  0.00  0.00  0.99  0.01  0.00  0.00  0.23  0.00
  YS02001918YS02001915    1.00   0.00  0.00  0.00  0.99  0.01  0.00  0.00  0.82  0.00
  YS02001923YS02001920    1.00   0.00  0.00  0.00  1.00  0.00  0.00  0.00  1.00  0.00
  YS02001926YS02001923    1.00   0.00  0.05  0.00  0.00  0.00  0.95  0.00  0.00  0.00
  YS02001929YS02001926    1.00   0.00  0.09  0.00  0.91  0.00  0.00  0.00  0.86  0.00
  YS02001920YS02001918    1.00   0.00  0.00  0.00  1.00  0.00  0.00  0.00  0.00  0.00
  YS02001629YS02163301    1.00   0.14  0.01  0.00  0.85  0.00  0.00  0.00  0.00  0.00
  YS02001619YS02001622    1.00   0.09  0.00  0.00  0.91  0.00  0.00  0.00  0.00  0.00
  YS02001622YS02001625    1.00   0.09  0.00  0.00  0.91  0.00  0.00  0.00  0.12  0.00
  YS02001625YS02001629    1.00   0.09  0.09  0.00  0.78  0.00  0.04  0.00  0.00  0.00
  YS02163301YS02001633    1.00   0.00  0.14  0.00  0.86  0.00  0.00  0.00  0.00  0.00
  YS02163601YS02164001    1.00   0.00  0.05  0.00  0.95  0.00  0.00  0.00  0.00  0.00
  YS02164001YS02001641    1.00   0.01  0.05  0.00  0.95  0.00  0.00  0.00  0.07  0.00
  YS02001641YS02001644    1.00   0.00  0.00  0.00  1.00  0.00  0.00  0.00  0.00  0.00
  YS02001647YS02001649    1.00   0.00  0.17  0.00  0.83  0.00  0.00  0.00  0.01  0.00
  YS02006553YS02006556    1.00   0.01  0.00  0.00  0.99  0.00  0.00  0.00  0.03  0.00
  YS02006556YS02006558    1.00   0.00  0.00  0.00  1.00  0.00  0.00  0.00  0.00  0.00
  YSB6556YSB1171          1.00   0.03  0.06  0.00  0.92  0.00  0.00  0.00  0.00  0.00
  YS02001907YS02006553    1.00   0.00  0.01  0.00  0.98  0.00  0.00  0.00  0.00  0.00
  YS02006558YS02006561    1.00   0.17  0.00  0.00  0.00  0.83  0.00  0.00  0.73  0.00
  YS02001633YS02163601    1.00   0.00  0.00  0.00  1.00  0.00  0.00  0.00  0.20  0.00
  YS02001644YS02001647    1.00   0.00  0.17  0.00  0.83  0.00  0.00  0.00  0.00  0.00
  YS02001745YS02001748    1.00   0.00  0.00  0.00  0.71  0.02  0.00  0.27  0.12  0.00
  YS02001748YS02001751    1.00   0.00  0.00  0.00  0.92  0.08  0.00  0.00  0.22  0.00
  YS02001751YS02001754    1.00   0.00  0.00  0.00  0.81  0.00  0.00  0.19  0.02  0.00
  YS02001754YS02001757    1.00   0.00  0.00  0.00  1.00  0.00  0.00  0.00  0.25  0.00
  YS02001882YS02001884    1.00   0.13  0.01  0.00  0.86  0.00  0.00  0.00  0.00  0.00
  YS02001884YS02001887    1.00   0.04  0.04  0.00  0.92  0.00  0.00  0.00  0.00  0.00
  YS02001890YS02001895    1.00   0.00  0.15  0.00  0.85  0.00  0.00  0.00  0.00  0.00
  YS02001895YS02001898    1.00   0.15  0.00  0.00  0.82  0.00  0.03  0.00  0.00  0.00
  YS02001898YS02001901    1.00   0.14  0.01  0.00  0.84  0.00  0.00  0.00  0.02  0.00
  YS02001901YS02001904    1.00   0.14  0.00  0.00  0.86  0.00  0.00  0.00  0.00  0.00
  YS02001904YS02001907    1.00   0.00  0.14  0.00  0.86  0.00  0.00  0.00  0.00  0.00
  YS02001887YS02001890    1.00   0.00  0.00  0.00  0.98  0.00  0.02  0.00  0.00  0.00
  YS02001652YS02001649    1.00   0.00  0.00  0.00  1.00  0.00  0.00  0.00  0.25  0.00
  YS02001655YS02001652    1.00   0.00  0.00  0.00  0.81  0.00  0.00  0.19  0.02  0.00
  YS02001658YS02001655    1.00   0.00  0.12  0.00  0.78  0.10  0.00  0.00  0.10  0.00
  YS02001661YS02001658    1.00   0.12  0.00  0.00  0.70  0.17  0.00  0.00  0.15  0.00
  YS02001664YS02001661    1.00   0.09  0.00  0.00  0.69  0.22  0.00  0.00  0.41  0.00
  YSB1154YSB6556          1.00   0.08  0.00  0.00  0.92  0.00  0.00  0.00  0.02  0.00
  YSB1174YSB1171          1.00   0.03  0.03  0.00  0.94  0.00  0.00  0.00  0.00  0.00
  YSB1171HS02004479       1.00   0.03  0.00  0.00  0.96  0.00  0.00  0.01  0.13  0.00
  HS02004881HS02006253    1.00   0.04  0.00  0.00  0.00  0.00  0.00  0.96  0.00  0.00
  YS02001793JiankangQianchi    1.00   0.00  0.00  0.00  1.00  0.00  0.00  0.00  0.71  0.00
  YS02001757CaochengTiaoxuchi    1.00   0.00  0.22  0.00  0.78  0.00  0.00  0.00  0.00  0.00
  WSF200WS02003060        1.00   0.00  0.23  0.00  0.77  0.00  0.00  0.00  0.58  0.00
  1                       1.00   0.00  0.00  0.00  0.00  1.00  0.00  0.00  0.34  0.00
  
  
  *************************
  Conduit Surcharge Summary
  *************************
  
  ----------------------------------------------------------------------------
                                                           Hours        Hours 
                         --------- Hours Full --------   Above Full   Capacity
  Conduit                Both Ends  Upstream  Dnstream   Normal Flow   Limited
  ----------------------------------------------------------------------------
  WS02006229WS02006228        0.35      0.41      0.35      1.23         0.35
  WS02006256WS02006235        3.40      3.47      5.64      2.84         0.01
  WS02006235WS02006234        0.01      0.01      0.01      3.04         0.01
  WS02006231WS02006230        0.01      0.01      0.01      3.81         0.01
  WS02006230WS02006229        0.73      0.95      0.73      4.57         0.73
  WS02006228WS02006109        0.38      0.54      0.38      1.65         0.38
  WS02006111WS02006112        0.01      0.01      1.28      0.01         0.01
  WS02006110WS02006113        0.01      0.01      0.46      0.01         0.01
  WS02006109WS02006110        0.01      0.01      0.54      0.01         0.01
  WS02004404WS02004405        0.01      0.01      0.01      4.13         0.01
  WS02003072WS02003073        0.01      0.01      0.01      2.50         0.01
  YS02001759YS02001757        5.21      5.21      5.38      0.01         0.01
  YS02001762YS02001759        5.13      5.13      5.21      0.01         0.01
  YS02001765YS02001762        4.97      4.97      5.13      0.01         0.01
  YS02001770YS02001767        4.84      4.84      4.86      0.01         0.19
  YS02001774YS02001770        4.75      4.75      5.08      0.01         0.01
  YS02001779YS02001774        4.30      4.30      5.08      0.01         0.01
  YS02001649YS02001757        5.16      5.16      5.38      0.01         0.01
  YS02001767YS02001765        4.86      4.86      4.97      0.01         0.01
  YS02001629YS02163301        4.70      4.70      4.80      0.01         0.01
  YS02001619YS02001622        3.73      3.73      3.80      0.01         0.01
  YS02001622YS02001625        3.80      3.80      4.54      0.01         0.01
  YS02001625YS02001629        3.73      3.73      4.54      0.01         0.01
  YS02163301YS02001633        4.80      4.80      4.99      0.01         0.01
  YS02163601YS02164001        4.98      4.98      5.15      0.01         0.01
  YS02164001YS02001641        4.98      4.98      5.04      0.01         0.01
  YS02001641YS02001644        5.04      5.04      5.05      0.01         0.20
  YS02001647YS02001649        4.52      4.52      5.16      0.01         0.01
  YS02001633YS02163601        4.92      4.92      5.15      0.01         0.01
  YS02001644YS02001647        4.52      4.52      5.05      0.01         0.01
  YS02001745YS02001748        0.01      0.01      3.00      0.01         0.01
  YS02001748YS02001751        3.28      3.28      3.86      0.01         0.01
  YS02001751YS02001754        3.86      3.86      4.39      0.01         0.01
  YS02001754YS02001757        4.52      4.52      5.38      0.01         0.01
  YS02001652YS02001649        4.55      4.55      5.16      0.01         0.01
  YS02001655YS02001652        3.91      3.91      4.47      0.01         0.01
  YS02001658YS02001655        3.06      3.06      3.91      0.01         0.01
  YS02001661YS02001658        0.01      0.01      3.06      0.01         0.01
  YS02001793JiankangQianchi        0.01      0.01      7.82      0.01         0.01
  YS02001757CaochengTiaoxuchi        3.49      3.49      5.38      0.01         0.01
  
  
  ***************
  Pumping Summary
  ***************
  
  ---------------------------------------------------------------------------------------------------------
                                                  Min       Avg       Max     Total     Power    % Time Off
                        Percent   Number of      Flow      Flow      Flow    Volume     Usage    Pump Curve
  Pump                 Utilized   Start-Ups       LPS       LPS       LPS  10^6 ltr     Kw-hr    Low   High
  ---------------------------------------------------------------------------------------------------------
  CC-Pump-1                0.00           0      0.00      0.00      0.00     0.000      0.00    0.0    0.0
  CC-Pump-2                0.00           0      0.00      0.00      0.00     0.000      0.00    0.0    0.0
  JK-Pump-1               35.98          12      0.00    300.00    300.00     3.044     36.88    0.0    0.0
  JK-Pump-2                0.00           0      0.00      0.00      0.00     0.000      0.00    0.0    0.0
  XR-Pump-1              100.00           1      0.00     95.00     95.00     2.679     17.77    0.0    0.0
  XR-Pump-2               94.70           1      0.00     95.00     95.00     2.537     16.34    0.0    0.0
  XR-Pump-3               61.77           3      0.00     95.00     95.00     1.655      9.67    0.0    0.0
  XR-Pump-4                0.00           0      0.00      0.00      0.00     0.000      0.00    0.0    0.0
  
  
  ***************************
  Link Pollutant Load Summary
  ***************************
  
  ------------------------------------------------------------------------------------------
                                 COD            SS            TN            TP         NH4-N
  Link                            kg            kg            kg            kg            kg
  ------------------------------------------------------------------------------------------
  WS02003066WSF200           279.867       470.916        11.571         1.209         6.634
  WS02006287WS02006284       107.577       183.585         6.269         0.724         3.753
  WS02006284WS02006280       108.002       184.270         6.308         0.729         3.778
  WS02006280WS02006229       107.983       184.236         6.307         0.729         3.777
  WS02006229WS02006228       285.532       478.761        11.842         1.236         6.790
  WS02006256WS02006235       169.344       278.718         5.401         0.501         2.955
  WS02006253WS02006251        12.031        21.930         0.339         0.029         0.178
  WS02006252WS02006251         0.000         0.000         0.000         0.000         0.000
  WS02006251WS02006249        12.609        22.869         0.392         0.036         0.211
  WS02006249WS02006248        12.495        22.669         0.384         0.035         0.207
  WS02006248WS02006247        12.849        23.265         0.399         0.036         0.215
  WS02006247WS02006245        14.426        25.794         0.470         0.044         0.256
  WS02006245WS02006243        16.667        29.459         0.550         0.051         0.300
  WS02006243WS02006242        21.779        37.794         0.706         0.065         0.385
  WS02006242WS02006240        31.091        52.783         0.992         0.091         0.539
  WS02006240WS02006239        39.717        66.568         1.285         0.118         0.700
  WS02006239WS02006238        48.818        80.916         1.619         0.151         0.888
  WS02006238WS02006235        54.330        89.468         1.829         0.172         1.006
  WS02006235WS02006234       178.839       296.538         5.620         0.517         3.064
  WS02006234WS02006232       179.230       297.177         5.638         0.519         3.075
  WS02006232WS02006231       178.560       296.097         5.605         0.516         3.055
  WS02006231WS02006230       178.824       296.510         5.614         0.517         3.061
  WS02006230WS02006229       178.649       296.295         5.605         0.516         3.055
  WS02006228WS02006109       284.748       477.581        11.787         1.230         6.757
  WS02006116WS02004401       290.557       487.598        12.290         1.293         7.070
  WS02006115WS02006116       291.468       488.999        12.351         1.300         7.106
  WS02006113WS02006111       291.199       487.986        12.446         1.313         7.170
  WS02006112WS02006115       292.317       490.356        12.412         1.307         7.143
  WS02006111WS02006112       291.041       487.773        12.439         1.312         7.166
  WS02006110WS02006113       291.536       488.529        12.472         1.316         7.186
  WS02006109WS02006110       292.583       490.201        12.556         1.326         7.238
  WS02004411WS02004412       282.610       475.234        11.769         1.232         6.754
  WS02004401WS02004402       289.467       485.873        12.211         1.284         7.021
  WS02004413WS02003067       280.516       471.928        11.610         1.213         6.657
  WS02004412WS02004413       281.596       473.644        11.704         1.225         6.715
  WS02004410WS02004411       283.336       476.362        11.816         1.238         6.782
  WS02004409WS02004410       283.972       477.354        11.858         1.243         6.808
  WS02004407WS02004409       284.495       478.152        11.891         1.246         6.828
  WS02004406WS02004407       284.696       478.434        11.902         1.248         6.834
  WS02004405WS02004406       286.713       481.625        12.062         1.267         6.933
  WS02004404WS02004405       287.676       483.090        12.111         1.272         6.962
  WS02004403WS02004404       287.388       482.607        12.062         1.266         6.930
  WS02004402WS02004403       288.382       484.180        12.135         1.274         6.974
  WS02004139WS02001211      1253.853      2008.976       117.878        14.683        73.518
  WS02004138WS02004139      1259.825      2018.551       118.429        14.751        73.861
  WS02003067WS02003066       279.946       471.038        11.578         1.210         6.638
  WS02001213WS02003059      1287.448      2062.683       121.149        15.093        75.565
  WS02001212WS02001213      1295.086      2074.928       121.858        15.181        76.006
  WS02001211WS02001212      1297.556      2078.883       122.091        15.210        76.152
  WS02003072WS02003073      1666.926      2692.998       142.357        17.507        88.225
  WS02003069WS02003072      1671.900      2700.953       142.828        17.566        88.519
  WS02003060WS02003069      1673.846      2704.060       142.995        17.587        88.622
  WS02003059WS02003060      1284.292      2057.621       120.859        15.057        75.384
  HS02004901HS02004770         2.556         4.606         0.050         0.004         0.023
  HS02004876HS02004881        10.155        18.413         0.307         0.027         0.163
  HS02004870HS02004876         7.881        14.206         0.271         0.025         0.147
  HS02004842HS02004848         1.401         2.441         0.031         0.002         0.014
  HS02004837HS02004842         6.036         9.827         0.499         0.061         0.307
  HS02004830HS02004837        48.644        79.121         4.234         0.523         2.630
  HS02004824HS02004830        49.394        80.321         4.306         0.532         2.675
  HS02004817HS02004824        54.884        90.217         4.449         0.543         2.748
  HS02004770HS02004777         9.869        17.917         0.216         0.014         0.098
  HS02004799HS02004480        43.330        74.923         1.963         0.212         1.129
  HS02004792HS02004799        40.519        69.467         1.958         0.216         1.136
  HS02004788HS02004792        26.798        45.751         1.546         0.176         0.917
  HS02004785HS02004788        11.358        20.312         0.367         0.033         0.193
  HS02004777HS02004785        10.858        19.506         0.322         0.028         0.165
  HS02004480HS02004478        51.514        90.217         2.058         0.216         1.166
  HS02004479HS02004480        12.688        22.480         0.524         0.057         0.305
  HS02004862HS02004870         5.928        10.448         0.231         0.023         0.128
  HS02004848HS02004852         1.620         2.848         0.036         0.002         0.016
  HS02004856HS02004862         3.189         5.837         0.067         0.004         0.031
  HS02004852HS02004856         1.618         2.844         0.036         0.002         0.016
  HS02004802HS02004478        56.361        93.853         4.238         0.511         2.604
  HS02004478WS02006287       107.753       183.873         6.284         0.726         3.763
  HS02004817HS02004807        53.512        88.024         4.319         0.526         2.667
  HS02004807HS02004802        57.137        95.090         4.313         0.520         2.651
  YS02001759YS02001757        93.501       154.431         2.230         0.163         1.127
  YS02001762YS02001759        50.019        83.343         1.352         0.106         0.703
  YS02001765YS02001762        49.659        82.649         1.370         0.108         0.716
  YS02001770YS02001767        47.327        78.814         1.079         0.070         0.530
  YS02001774YS02001770         4.485         7.535         0.113         0.008         0.058
  YS02001779YS02001774         3.428         5.678         0.157         0.017         0.091
  YS02001649YS02001757       134.444       216.023         3.079         0.226         1.502
  YS02001767YS02001765        49.782        82.786         1.388         0.110         0.727
  YS02006561YS02001783       203.779       334.564         6.086         0.543         3.279
  YS02001783YS02001784       203.712       334.470         6.083         0.542         3.277
  YS02001784YS02001785       211.084       346.281         6.795         0.632         3.723
  YS02001788YS02001790       211.763       347.388         6.868         0.641         3.769
  YS02001790YS02001791       212.753       348.982         6.967         0.653         3.830
  YS02001791YS02001793       212.736       348.963         6.966         0.653         3.830
  YS02001910YS02001907        73.752       119.347         3.217         0.325         1.843
  YS02001786YS02001788       211.325       346.678         6.824         0.635         3.741
  YS02001915YS02001910        73.644       119.119         3.175         0.319         1.815
  YS02001918YS02001915        40.835        64.157         2.416         0.277         1.451
  YS02001923YS02001920        20.811        32.112         0.478         0.035         0.239
  YS02001926YS02001923        20.437        31.508         0.439         0.030         0.215
  YS02001929YS02001926        20.150        31.040         0.407         0.026         0.195
  YS02001920YS02001918        40.754        64.028         2.396         0.275         1.438
  YS02001629YS02163301        23.067        37.086         0.530         0.033         0.244
  YS02001619YS02001622        26.204        41.872         0.604         0.037         0.277
  YS02001622YS02001625        25.308        40.554         0.581         0.036         0.267
  YS02001625YS02001629        24.241        38.970         0.555         0.034         0.256
  YS02163301YS02001633        22.983        36.973         0.527         0.033         0.244
  YS02163601YS02164001        65.812       104.898         1.511         0.110         0.737
  YS02164001YS02001641        65.377       104.210         1.489         0.107         0.725
  YS02001641YS02001644        65.733       104.805         1.485         0.107         0.722
  YS02001647YS02001649       110.395       175.930         2.472         0.178         1.205
  YS02006553YS02006556       149.319       244.432         4.802         0.449         2.639
  YS02006556YS02006558       149.286       244.372         4.766         0.444         2.615
  YSB6556YSB1171               6.331        11.342         0.197         0.020         0.110
  YS02001907YS02006553       149.276       244.369         4.803         0.449         2.640
  YS02006558YS02006561       203.781       334.559         6.086         0.543         3.279
  YS02001633YS02163601        66.416       105.778         1.493         0.106         0.723
  YS02001644YS02001647       111.702       177.966         2.490         0.179         1.213
  YS02001745YS02001748        43.492        71.005         1.466         0.128         0.798
  YS02001748YS02001751        40.861        66.819         1.339         0.115         0.724
  YS02001751YS02001754        40.629        66.473         1.411         0.126         0.774
  YS02001754YS02001757        41.576        68.009         1.579         0.149         0.882
  YS02001882YS02001884         0.497         0.779         0.016         0.001         0.009
  YS02001884YS02001887         1.904         3.084         0.053         0.005         0.028
  YS02001890YS02001895        76.388       126.225         1.598         0.125         0.802
  YS02001895YS02001898        76.258       126.040         1.592         0.124         0.799
  YS02001898YS02001901        76.153       125.893         1.589         0.124         0.797
  YS02001901YS02001904        76.267       126.111         1.614         0.127         0.813
  YS02001904YS02001907        77.171       127.602         1.719         0.140         0.880
  YS02001887YS02001890        77.241       127.545         1.663         0.132         0.842
  YS02001652YS02001649        33.781        55.028         0.847         0.064         0.408
  YS02001655YS02001652        34.709        56.458         0.873         0.066         0.420
  YS02001658YS02001655        34.151        55.475         0.761         0.051         0.347
  YS02001661YS02001658        35.192        57.024         0.780         0.052         0.354
  YS02001664YS02001661        35.482        57.358         0.789         0.052         0.358
  YSB1154YSB6556               5.804        10.503         0.132         0.012         0.069
  YSB1174YSB1171               4.431         8.056         0.139         0.014         0.077
  YSB1171HS02004479           12.559        22.283         0.510         0.056         0.296
  HS02004881HS02006253        11.425        20.812         0.330         0.028         0.174
  YS02001793JiankangQianchi       215.009       352.728         7.030         0.659         3.864
  YS02001757CaochengTiaoxuchi       231.483       379.831         5.622         0.429         2.828
  WSF200WS02003060           279.457       470.277        11.548         1.206         6.620
  1                         1673.416      2703.394       143.043        17.594        88.657
  CC-Pump-1                    0.000         0.000         0.000         0.000         0.000
  CC-Pump-2                    0.000         0.000         0.000         0.000         0.000
  JK-Pump-1                  201.036       331.061         6.381         0.590         3.488
  JK-Pump-2                    0.000         0.000         0.000         0.000         0.000
  XR-Pump-1                  479.117       767.603        45.089         5.617        28.125
  XR-Pump-2                  472.077       756.338        44.413         5.533        27.702
  XR-Pump-3                  311.347       498.966        29.178         3.632        18.191
  XR-Pump-4                    0.000         0.000         0.000         0.000         0.000
  

  Analysis begun on:  Sat Jul 10 21:52:31 2021
  Analysis ended on:  Sat Jul 10 21:52:32 2021
  Total elapsed time: 00:00:01