
  EPA STORM WATER MANAGEMENT MODEL - VERSION 5.1 (Build 5.3.0.dev0)
  --------------------------------------------------------------

  WARNING 04: minimum elevation drop used for Conduit WS02004404WS02004405
  WARNING 03: negative offset ignored for Link YS02001904YS02001907
  
  *********************************************************
  NOTE: The summary statistics displayed in this report are
  based on results found at every computational time step,  
  not just on results from each reporting time step.
  *********************************************************
  
  ****************
  Analysis Options
  ****************
  Flow Units ............... LPS
  Process Models:
    Rainfall/Runoff ........ YES
    RDII ................... NO
    Snowmelt ............... NO
    Groundwater ............ NO
    Flow Routing ........... YES
    Ponding Allowed ........ NO
    Water Quality .......... YES
  Infiltration Method ...... HORTON
  Flow Routing Method ...... DYNWAVE
  Surcharge Method ......... EXTRAN
  Starting Date ............ 08/28/2015 08:00:00
  Ending Date .............. 08/28/2015 15:50:00
  Antecedent Dry Days ...... 8.0
  Report Time Step ......... 00:01:00
  Wet Time Step ............ 00:01:00
  Dry Time Step ............ 00:01:00
  Routing Time Step ........ 5.00 sec
  Variable Time Step ....... YES
  Maximum Trials ........... 8
  Number of Threads ........ 4
  Head Tolerance ........... 0.001500 m
  
  
  **************************        Volume         Depth
  Runoff Quantity Continuity     hectare-m            mm
  **************************     ---------       -------
  Total Precipitation ......         1.182         2.587
  Evaporation Loss .........         0.000         0.000
  Infiltration Loss ........         0.294         0.643
  Surface Runoff ...........         0.563         1.234
  Final Storage ............         0.325         0.711
  Continuity Error (%) .....        -0.024
  
  
  **************************           COD            SS            TN            TP         NH4-N
  Runoff Quality Continuity             kg            kg            kg            kg            kg
  **************************    ----------    ----------    ----------    ----------    ----------
  Initial Buildup ..........     41378.656     70582.865      1804.177       168.684      1032.807
  Surface Buildup ..........        12.900        12.197         3.415         0.318         2.030
  Wet Deposition ...........         0.000         0.000         0.000         0.000         0.000
  Sweeping Removal .........         0.000         0.000         0.000         0.000         0.000
  Infiltration Loss ........         8.923        14.110         0.199         0.013         0.091
  BMP Removal ..............         0.000         0.000         0.000         0.000         0.000
  Surface Runoff ...........       214.986       332.026         4.739         0.292         2.216
  Remaining Buildup ........     41167.580     70248.825      1802.653       168.697      1032.529
  Continuity Error (%) .....         0.000         0.000         0.000         0.000         0.000
  
  
  **************************        Volume        Volume
  Flow Routing Continuity        hectare-m      10^6 ltr
  **************************     ---------     ---------
  Dry Weather Inflow .......         0.616         6.165
  Wet Weather Inflow .......         0.563         5.631
  Groundwater Inflow .......         0.000         0.000
  RDII Inflow ..............         0.000         0.000
  External Inflow ..........         0.102         1.024
  External Outflow .........         1.006        10.065
  Flooding Loss ............         0.060         0.599
  Evaporation Loss .........         0.000         0.000
  Exfiltration Loss ........         0.000         0.000
  Initial Stored Volume ....         0.076         0.761
  Final Stored Volume ......         0.365         3.652
  Continuity Error (%) .....        -5.418
  
  
  **************************           COD            SS            TN            TP         NH4-N
  Quality Routing Continuity            kg            kg            kg            kg            kg
  **************************    ----------    ----------    ----------    ----------    ----------
  Dry Weather Inflow .......      1541.201      2465.922       147.955        18.494        92.472
  Wet Weather Inflow .......       214.891       331.890         4.737         0.292         2.215
  Groundwater Inflow .......         0.000         0.000         0.000         0.000         0.000
  RDII Inflow ..............         0.000         0.000         0.000         0.000         0.000
  External Inflow ..........       183.418       293.469        17.608         2.201        11.005
  External Outflow .........      1594.112      2551.948       148.353        18.458        92.494
  Flooding Loss ............        28.204        44.256         1.349         0.145         0.787
  Exfiltration Loss ........         0.000         0.000         0.000         0.000         0.000
  Mass Reacted .............         0.000         0.000         0.000         0.000         0.000
  Initial Stored Mass ......         0.000         0.000         0.000         0.000         0.000
  Final Stored Mass ........       176.603       272.089         8.925         0.960         5.198
  Continuity Error (%) .....         7.249         7.213         6.855         6.786         6.825
  
  
  *************************
  Highest Continuity Errors
  *************************
  Node HS02004842 (38.72%)
  Node YS02001774 (33.87%)
  Node YS02001884 (33.68%)
  Node JK-storage (-25.13%)
  Node YS02001625 (12.72%)
  
  
  ***************************
  Time-Step Critical Elements
  ***************************
  Link WS02006280WS02006229 (39.06%)
  Link YS02001793JiankangQianchi (28.62%)
  Link WS02006238WS02006235 (12.71%)
  Link WS02003066WSF200 (3.41%)
  Link WS02006256WS02006235 (1.94%)
  
  
  ********************************
  Highest Flow Instability Indexes
  ********************************
  Link WS02006113WS02006111 (45)
  Link YS02001759YS02001757 (14)
  Link YS02001767YS02001765 (13)
  Link YS02001649YS02001757 (13)
  Link YS02001641YS02001644 (13)
  
  
  *************************
  Routing Time Step Summary
  *************************
  Minimum Time Step           :     0.50 sec
  Average Time Step           :     3.48 sec
  Maximum Time Step           :     5.00 sec
  Percent in Steady State     :    -0.00
  Average Iterations per Step :     2.25
  Percent Not Converging      :     0.32
  
  
  ***************************
  Subcatchment Runoff Summary
  ***************************
  
  ------------------------------------------------------------------------------------------------------------------------------
                            Total      Total      Total      Total     Imperv       Perv      Total       Total     Peak  Runoff
                           Precip      Runon       Evap      Infil     Runoff     Runoff     Runoff      Runoff   Runoff   Coeff
  Subcatchment                 mm         mm         mm         mm         mm         mm         mm    10^6 ltr      LPS
  ------------------------------------------------------------------------------------------------------------------------------
  sub0                       2.59       0.00       0.00       0.18       2.36       0.00       2.36        0.00     0.68   0.913
  sub1                       2.59       0.00       0.00       0.28       2.22       0.00       2.22        0.01     3.59   0.858
  sub2                       2.59       0.00       0.00       0.96       1.55       0.00       1.55        0.01     3.15   0.601
  sub3                       2.59       0.00       0.00       0.96       1.52       0.00       1.52        0.03     6.37   0.589
  sub4                       2.59       0.00       0.00       0.28       2.10       0.00       2.10        0.04     7.02   0.811
  sub5                       2.59       0.00       0.00       0.18       2.32       0.00       2.32        0.03     6.39   0.896
  sub7                       2.59       0.00       0.00       0.23       2.29       0.00       2.29        0.01     2.27   0.887
  sub8                       2.59       0.00       0.00       0.23       2.29       0.00       2.29        0.01     4.00   0.884
  sub9                       2.59       0.00       0.00       0.23       2.28       0.00       2.28        0.01     2.97   0.883
  sub10                      2.59       0.00       0.00       0.21       2.30       0.00       2.30        0.03     6.40   0.889
  sub11                      2.59       0.00       0.00       0.21       2.31       0.00       2.31        0.03     7.53   0.895
  sub12                      2.59       0.00       0.00       0.34       2.20       0.00       2.20        0.02     6.34   0.852
  sub14                      2.59       0.00       0.00       0.23       2.28       0.00       2.28        0.02     5.79   0.882
  sub15                      2.59       0.00       0.00       0.78       1.75       0.00       1.75        0.03     7.85   0.678
  sub16                      2.59       0.00       0.00       0.85       1.69       0.00       1.69        0.02     5.59   0.655
  sub17                      2.59       0.00       0.00       0.83       1.72       0.00       1.72        0.01     4.53   0.664
  sub22                      2.59       0.00       0.00       1.11       1.44       0.00       1.44        0.09    25.79   0.555
  sub23                      2.59       0.00       0.00       0.96       1.59       0.00       1.59        0.08    21.96   0.614
  sub60                      2.59       0.00       0.00       0.31       1.33       0.00       1.33        0.40    31.46   0.513
  sub61                      2.59       0.00       0.00       0.44       1.48       0.00       1.48        0.46    40.69   0.571
  sub62                      2.59       0.00       0.00       0.21       1.57       0.00       1.57        0.48    41.21   0.606
  sub63                      2.59       0.00       0.00       0.75       1.34       0.00       1.34        0.40    38.46   0.517
  sub64                      2.59       0.00       0.00       0.39       1.26       0.00       1.26        0.38    29.82   0.489
  sub65                      2.59       0.00       0.00       0.34       1.28       0.00       1.28        0.39    30.20   0.493
  sub66                      2.59       0.00       0.00       0.75       1.12       0.00       1.12        0.34    27.58   0.432
  sub67                      2.59       0.00       0.00       0.21       1.78       0.00       1.78        0.55    54.46   0.690
  sub68                      2.59       0.00       0.00       0.36       1.59       0.00       1.59        0.49    45.35   0.614
  sub69                      2.59       0.00       0.00       0.39       1.78       0.00       1.78        0.42    46.61   0.688
  sub70                      2.59       1.81       0.00       1.50       2.01       0.00       2.01        0.46    33.77   0.457
  sub71                      2.59       0.00       0.00       0.21       1.48       0.00       1.48        0.35    28.45   0.571
  sub72                      2.59       0.00       0.00       0.18       0.96       0.00       0.96        0.19    12.78   0.369
  1                          2.59       1.96       0.00       1.29       1.93       0.08       2.01        0.47    30.02   0.443
  2                          2.59       0.00       0.00       1.92       0.54       0.02       0.56        0.22    27.58   0.217
  
  
  ****************************
  Subcatchment Washoff Summary
  ****************************
  
  ------------------------------------------------------------------------------------------
                                 COD            SS            TN            TP         NH4-N
  Subcatchment                    kg            kg            kg            kg            kg
  ------------------------------------------------------------------------------------------
  sub0                         0.256         0.441         0.004         0.000         0.002
  sub1                         1.022         1.765         0.020         0.001         0.010
  sub2                         0.585         0.973         0.014         0.001         0.006
  sub3                         1.373         2.241         0.034         0.002         0.015
  sub4                         2.180         3.695         0.049         0.003         0.023
  sub5                         2.297         3.913         0.041         0.003         0.020
  sub7                         0.565         1.002         0.011         0.001         0.005
  sub8                         0.869         1.569         0.019         0.001         0.009
  sub9                         0.721         1.284         0.015         0.001         0.007
  sub10                        1.953         3.380         0.037         0.002         0.018
  sub11                        1.998         3.524         0.039         0.002         0.019
  sub12                        1.676         2.919         0.031         0.002         0.015
  sub14                        1.509         2.660         0.030         0.002         0.014
  sub15                        1.717         2.880         0.036         0.002         0.017
  sub16                        1.120         1.891         0.023         0.002         0.010
  sub17                        1.007         1.681         0.020         0.001         0.009
  sub22                        5.065         8.331         0.105         0.008         0.048
  sub23                        3.282         5.627         0.080         0.005         0.036
  sub60                       13.610        20.719         0.319         0.017         0.152
  sub61                       17.737        26.935         0.371         0.023         0.177
  sub62                       18.888        29.234         0.426         0.024         0.203
  sub63                       13.709        20.705         0.332         0.021         0.148
  sub64                       15.311        22.414         0.317         0.021         0.149
  sub65                       15.709        23.096         0.329         0.021         0.155
  sub66                        9.853        14.677         0.248         0.015         0.113
  sub67                       28.524        43.807         0.546         0.037         0.262
  sub68                       20.448        31.501         0.447         0.027         0.211
  sub69                       20.013        31.389         0.418         0.027         0.197
  sub70                       26.854        42.130         0.628         0.040         0.285
  sub71                       12.560        19.587         0.307         0.016         0.146
  sub72                        6.767         9.679         0.145         0.009         0.069
  1                           10.457        16.540         0.259         0.017         0.115
  2                            2.220         3.354         0.085         0.005         0.035
  ------------------------------------------------------------------------------------------
  System                     261.854       405.545         5.785         0.358         2.697
  
  
  ******************
  Node Depth Summary
  ******************
  
  ---------------------------------------------------------------------------------
                                 Average  Maximum  Maximum  Time of Max    Reported
                                   Depth    Depth      HGL   Occurrence   Max Depth
  Node                 Type       Meters   Meters   Meters  days hr:min      Meters
  ---------------------------------------------------------------------------------
  WS02001211           JUNCTION     0.63     0.77     5.61     0  03:25        0.77
  WS02001212           JUNCTION     0.35     0.48     5.54     0  03:24        0.48
  WS02001213           JUNCTION     0.57     0.71     5.47     0  03:23        0.71
  WS02003069           JUNCTION     0.33     0.50     5.08     0  03:23        0.50
  WS02003072           JUNCTION     0.40     0.56     4.93     0  03:23        0.56
  WS02003073           JUNCTION     0.23     0.34     4.40     0  03:24        0.34
  WS02003060           JUNCTION     0.30     0.44     5.37     0  03:22        0.44
  WS02003066           JUNCTION     0.13     0.24     5.79     0  03:21        0.24
  WS02003059           JUNCTION     0.62     0.76     5.45     0  03:23        0.76
  WS02003067           JUNCTION     0.35     0.60     5.92     0  03:20        0.60
  WS02004401           JUNCTION     0.44     0.67     6.67     0  03:15        0.67
  WS02004402           JUNCTION     0.48     0.71     6.67     0  03:15        0.71
  WS02004403           JUNCTION     0.50     0.73     6.66     0  03:15        0.73
  WS02004404           JUNCTION     0.58     0.81     6.66     0  03:16        0.81
  WS02004406           JUNCTION     0.59     0.82     6.65     0  03:16        0.82
  WS02004409           JUNCTION     0.24     0.49     6.26     0  03:19        0.49
  WS02004410           JUNCTION     0.26     0.51     6.23     0  03:20        0.51
  WS02004411           JUNCTION     0.28     0.53     6.21     0  03:20        0.53
  WS02004412           JUNCTION     0.31     0.55     6.19     0  03:20        0.55
  WS02004413           JUNCTION     0.44     0.72     6.19     0  03:20        0.72
  WS02004405           JUNCTION     0.58     0.80     6.65     0  03:16        0.80
  WS02006109           JUNCTION     0.50     0.74     7.36     0  03:07        0.74
  WS02006110           JUNCTION     0.52     0.74     7.33     0  03:08        0.74
  WS02006111           JUNCTION     0.12     0.22     6.93     0  03:08        0.22
  WS02006112           JUNCTION     0.58     0.84     6.72     0  03:14        0.84
  WS02006113           JUNCTION     0.18     0.34     7.23     0  03:08        0.34
  WS02006115           JUNCTION     0.32     0.56     6.70     0  03:15        0.56
  WS02006116           JUNCTION     0.41     0.64     6.68     0  03:15        0.64
  WS02006230           JUNCTION     0.39     0.68     7.43     0  03:09        0.68
  WS02006231           JUNCTION     0.20     0.45     7.57     0  03:14        0.45
  WS02006232           JUNCTION     0.31     0.59     7.63     0  03:14        0.59
  WS02006234           JUNCTION     0.20     0.49     7.65     0  03:13        0.49
  WS02006235           JUNCTION     0.23     0.52     7.69     0  03:13        0.52
  WS02006238           JUNCTION     0.25     0.54     7.69     0  03:13        0.54
  WS02006240           JUNCTION     0.15     0.40     7.69     0  03:12        0.40
  WS02006242           JUNCTION     0.18     0.42     7.69     0  03:13        0.42
  WS02006243           JUNCTION     0.08     0.27     7.69     0  03:14        0.27
  WS02006245           JUNCTION     0.07     0.20     7.69     0  03:09        0.20
  WS02006247           JUNCTION     0.07     0.19     7.69     0  03:10        0.19
  WS02006248           JUNCTION     0.04     0.10     7.69     0  03:10        0.10
  WS02006249           JUNCTION     0.06     0.14     7.74     0  02:21        0.14
  WS02006239           JUNCTION     0.19     0.48     7.69     0  03:13        0.48
  WS02006251           JUNCTION     0.04     0.11     7.78     0  02:19        0.11
  WS02006252           JUNCTION     0.00     0.00     8.24     0  00:00        0.00
  WS02006253           JUNCTION     0.08     0.17     7.81     0  02:18        0.17
  WS02006256           JUNCTION     0.82     2.35     9.28     0  00:00        2.35
  WS02004138           JUNCTION     0.14     0.20     7.45     0  00:00        0.19
  WS02004139           JUNCTION     0.58     0.72     5.63     0  03:25        0.72
  WS02004407           JUNCTION     0.11     0.22     6.54     0  03:16        0.22
  WS02006228           JUNCTION     0.47     0.73     7.38     0  03:07        0.73
  WS02006229           JUNCTION     0.43     0.70     7.39     0  03:07        0.70
  WS02006280           JUNCTION     0.04     0.10     8.37     0  02:18        0.10
  WS02006284           JUNCTION     0.33     0.42     8.82     0  02:18        0.42
  WS02006287           JUNCTION     0.06     0.15     9.11     0  02:18        0.15
  WSF200               JUNCTION     0.10     0.21     5.45     0  03:21        0.21
  HS02004901           JUNCTION     0.09     0.18    10.00     0  02:16        0.18
  HS02004881           JUNCTION     0.00     0.01     9.04     0  02:18        0.01
  HS02004876           JUNCTION     0.03     0.08     9.11     0  02:18        0.08
  HS02004870           JUNCTION     0.01     0.03     9.31     0  02:17        0.03
  HS02004862           JUNCTION     0.01     0.03     9.41     0  02:19        0.03
  HS02004856           JUNCTION     0.06     0.09     9.52     0  02:18        0.09
  HS02004852           JUNCTION     0.00     0.02     9.53     0  02:19        0.02
  HS02004848           JUNCTION     0.00     0.02     9.62     0  02:15        0.02
  HS02004842           JUNCTION     0.32     0.35     9.62     0  02:15        0.35
  HS02004837           JUNCTION     0.02     0.04     9.62     0  02:15        0.04
  HS02004830           JUNCTION     0.03     0.05     9.52     0  02:16        0.05
  HS02004824           JUNCTION     0.02     0.03     9.43     0  02:19        0.03
  HS02004817           JUNCTION     0.40     0.48     9.33     0  02:18        0.48
  HS02004807           JUNCTION     0.10     0.16     9.33     0  02:18        0.16
  HS02004802           JUNCTION     0.13     0.19     9.32     0  02:18        0.19
  HS02004799           JUNCTION     0.09     0.19     9.40     0  02:16        0.19
  HS02004792           JUNCTION     0.02     0.06     9.59     0  02:15        0.06
  HS02004788           JUNCTION     0.02     0.05     9.94     0  02:17        0.05
  HS02004785           JUNCTION     0.03     0.09     9.99     0  02:17        0.09
  HS02004777           JUNCTION     0.12     0.20    10.00     0  02:16        0.20
  HS02004770           JUNCTION     0.09     0.17    10.00     0  02:16        0.17
  HS02004480           JUNCTION     0.05     0.14     9.38     0  02:17        0.14
  HS02004479           JUNCTION     0.09     0.18     9.38     0  02:17        0.18
  HS02004478           JUNCTION     0.04     0.09     9.32     0  02:17        0.09
  YS02001745           JUNCTION     0.08     0.26     7.77     0  07:48        0.26
  YS02001748           JUNCTION     0.28     0.69     7.76     0  07:49        0.68
  YS02001751           JUNCTION     0.42     0.89     7.77     0  07:49        0.88
  YS02001754           JUNCTION     0.63     1.16     7.77     0  07:49        1.15
  YS02001762           JUNCTION     0.80     1.36     7.76     0  07:49        1.36
  YS02001765           JUNCTION     0.76     1.31     7.76     0  07:49        1.31
  YS02001767           JUNCTION     0.73     1.27     7.76     0  07:49        1.27
  YS02001770           JUNCTION     0.73     1.27     7.76     0  07:50        1.27
  YS02001774           JUNCTION     0.78     1.34     7.76     0  07:48        1.34
  YS02001779           JUNCTION     0.57     1.08     7.77     0  07:48        1.08
  YS02001882           JUNCTION     0.19     0.30     7.02     0  02:52        0.30
  YS02001884           JUNCTION     0.27     0.40     7.02     0  02:51        0.40
  YS02001759           JUNCTION     0.83     1.40     7.76     0  07:49        1.39
  YS02001887           JUNCTION     0.35     0.48     7.02     0  02:51        0.48
  YS02001890           JUNCTION     0.38     0.51     7.02     0  02:52        0.51
  YS02001898           JUNCTION     0.16     0.27     7.00     0  02:53        0.27
  YS02001901           JUNCTION     0.26     0.39     7.00     0  02:53        0.39
  YS02001904           JUNCTION     0.25     0.37     7.00     0  02:53        0.37
  YS02001907           JUNCTION     0.56     0.71     7.00     0  02:54        0.71
  YS02001910           JUNCTION     0.36     0.49     7.00     0  02:54        0.49
  YS02001915           JUNCTION     0.18     0.28     7.00     0  02:54        0.28
  YS02001918           JUNCTION     0.05     0.07     7.13     0  03:04        0.07
  YS02001619           JUNCTION     0.39     0.83     7.76     0  07:49        0.83
  YS02001629           JUNCTION     0.68     1.22     7.76     0  07:50        1.22
  YS02001641           JUNCTION     0.77     1.33     7.76     0  07:49        1.32
  YS02001644           JUNCTION     0.78     1.33     7.76     0  07:49        1.33
  YS02001652           JUNCTION     0.64     1.17     7.76     0  07:49        1.16
  YS02001655           JUNCTION     0.45     0.91     7.76     0  07:47        0.91
  YS02001920           JUNCTION     0.13     0.16     7.16     0  03:03        0.16
  YS02001923           JUNCTION     0.04     0.05     7.31     0  03:02        0.05
  YS02001926           JUNCTION     0.10     0.12     7.57     0  03:02        0.12
  YS02001929           JUNCTION     0.04     0.06     7.75     0  03:01        0.06
  YS02001658           JUNCTION     0.24     0.62     7.76     0  07:50        0.62
  YS02001661           JUNCTION     0.15     0.36     7.76     0  07:48        0.36
  YS02001664           JUNCTION     0.05     0.08     8.00     0  02:43        0.08
  YS02001622           JUNCTION     0.41     0.86     7.76     0  07:49        0.86
  YS02001633           JUNCTION     0.76     1.31     7.76     0  07:50        1.31
  YS02001649           JUNCTION     0.81     1.37     7.76     0  07:49        1.37
  YS02001757           JUNCTION     0.93     1.50     7.77     0  07:49        1.50
  YS02001895           JUNCTION     0.16     0.27     7.01     0  02:52        0.27
  YS02001625           JUNCTION     0.65     1.16     7.76     0  07:50        1.16
  YS02163301           JUNCTION     0.70     1.25     7.76     0  07:50        1.25
  YS02163601           JUNCTION     0.81     1.36     7.76     0  07:49        1.36
  YS02164001           JUNCTION     0.75     1.30     7.76     0  07:49        1.30
  YS02001647           JUNCTION     0.63     1.15     7.76     0  07:49        1.15
  YSB1154              JUNCTION     0.21     0.32     9.38     0  02:17        0.32
  YSB6556              JUNCTION     0.12     0.21     9.38     0  02:17        0.21
  YSB1174              JUNCTION     0.17     0.27     9.38     0  02:17        0.27
  YSB1171              JUNCTION     0.37     0.48     9.38     0  02:16        0.48
  YS02006553           JUNCTION     0.56     0.72     7.00     0  02:54        0.72
  YS02006561           JUNCTION     0.09     0.15     6.81     0  02:53        0.15
  YS02006556           JUNCTION     0.54     0.69     7.00     0  02:53        0.69
  YS02006558           JUNCTION     0.58     0.73     7.00     0  02:53        0.73
  YS02001783           JUNCTION     0.14     0.25     6.40     0  02:53        0.25
  YS02001784           JUNCTION     0.18     0.29     6.36     0  02:54        0.29
  YS02001786           JUNCTION     0.15     0.25     6.28     0  02:54        0.25
  YS02001788           JUNCTION     0.11     0.18     6.15     0  02:55        0.18
  YS02001790           JUNCTION     0.13     0.21     5.86     0  02:55        0.21
  YS02001791           JUNCTION     0.09     0.15     5.62     0  02:55        0.15
  YS02001793           JUNCTION     0.06     0.56     5.39     0  02:51        0.54
  WSC                  OUTFALL      0.23     0.34     1.01     0  03:24        0.34
  JK-storage           STORAGE      0.91     4.55     5.35     0  02:51        4.53
  CC-storage           STORAGE      0.32     0.76     7.76     0  07:50        0.76
  XR-storage           STORAGE      1.73     5.12     3.12     0  06:35        5.12
  
  
  *******************
  Node Inflow Summary
  *******************
  
  -------------------------------------------------------------------------------------------------
                                  Maximum  Maximum                  Lateral       Total        Flow
                                  Lateral    Total  Time of Max      Inflow      Inflow     Balance
                                   Inflow   Inflow   Occurrence      Volume      Volume       Error
  Node                 Type           LPS      LPS  days hr:min    10^6 ltr    10^6 ltr     Percent
  -------------------------------------------------------------------------------------------------
  WS02001211           JUNCTION      7.35   388.36     0  03:30       0.207        7.41       0.535
  WS02001212           JUNCTION      0.00   389.29     0  03:30           0        7.37       0.377
  WS02001213           JUNCTION      0.00   390.35     0  03:30           0        7.34       0.310
  WS02003069           JUNCTION      0.32   711.52     0  03:22     0.00902        10.1       0.251
  WS02003072           JUNCTION      0.00   711.49     0  03:23           0        10.1       0.326
  WS02003073           JUNCTION      1.82   713.30     0  03:23      0.0514        10.1       0.363
  WS02003060           JUNCTION     16.53   711.20     0  03:22       0.466        10.1       0.245
  WS02003066           JUNCTION      0.00   307.97     0  03:21           0        2.38       0.099
  WS02003059           JUNCTION      0.00   392.19     0  03:30           0        7.32       0.506
  WS02003067           JUNCTION      0.00   307.97     0  03:20           0        2.39       0.239
  WS02004401           JUNCTION      0.00   310.06     0  03:13           0        2.53       0.519
  WS02004402           JUNCTION      0.00   309.60     0  03:14           0        2.51       0.517
  WS02004403           JUNCTION      0.00   309.36     0  03:14           0         2.5       0.493
  WS02004404           JUNCTION      0.16   309.43     0  03:15     0.00457        2.49       0.395
  WS02004406           JUNCTION      0.00   309.40     0  03:15           0        2.47       0.983
  WS02004409           JUNCTION      0.00   309.36     0  03:16           0        2.44       0.263
  WS02004410           JUNCTION      0.00   308.80     0  03:17           0        2.44       0.345
  WS02004411           JUNCTION      0.00   308.38     0  03:18           0        2.43       0.390
  WS02004412           JUNCTION      0.00   308.14     0  03:19           0        2.42       0.474
  WS02004413           JUNCTION      0.00   308.01     0  03:20           0        2.41       0.775
  WS02004405           JUNCTION      0.04   309.44     0  03:15     0.00107        2.49       0.605
  WS02006109           JUNCTION      1.23   312.61     0  03:07      0.0347        2.58       0.444
  WS02006110           JUNCTION      0.00   312.62     0  03:08           0        2.57       0.434
  WS02006111           JUNCTION      0.00   315.14     0  03:08           0        2.55       0.060
  WS02006112           JUNCTION      4.53   313.14     0  03:08      0.0147        2.57       0.717
  WS02006113           JUNCTION      0.00   312.49     0  03:08           0        2.56       0.138
  WS02006115           JUNCTION      0.00   311.77     0  03:10           0        2.55       0.388
  WS02006116           JUNCTION      0.00   310.59     0  03:12           0        2.54       0.415
  WS02006230           JUNCTION     10.28   266.60     0  03:14        0.29        1.98       0.363
  WS02006231           JUNCTION      0.00   256.41     0  03:14           0        1.69       0.084
  WS02006232           JUNCTION      0.00   256.40     0  03:12           0         1.7       0.679
  WS02006234           JUNCTION      0.00   256.43     0  03:11           0        1.69      -0.240
  WS02006235           JUNCTION      0.00   288.60     0  00:00           0        1.86       0.573
  WS02006238           JUNCTION      0.00   164.86     0  00:00           0       0.365       0.528
  WS02006240           JUNCTION      0.00    80.36     0  00:02           0       0.236       0.625
  WS02006242           JUNCTION      0.00    69.29     0  02:53           0       0.171       1.039
  WS02006243           JUNCTION      0.00    41.15     0  02:55           0        0.12      -0.124
  WS02006245           JUNCTION      0.00    18.90     0  02:22           0      0.0984       1.925
  WS02006247           JUNCTION      0.00    18.92     0  02:21           0      0.0886       0.230
  WS02006248           JUNCTION      0.00    18.92     0  02:21           0      0.0843       0.074
  WS02006249           JUNCTION      0.00    18.97     0  02:19           0      0.0837       0.436
  WS02006239           JUNCTION      0.00   121.08     0  00:01           0       0.303       0.629
  WS02006251           JUNCTION      0.08    19.01     0  02:18     0.00217      0.0836       0.088
  WS02006252           JUNCTION      0.00     0.00     0  00:00           0           0       0.000 ltr
  WS02006253           JUNCTION      0.68    18.94     0  02:18     0.00191      0.0816       0.189
  WS02006256           JUNCTION      0.00   983.00     0  00:00           0        2.23       0.041
  WS02004138           JUNCTION      0.00   380.00     0  00:00           0        7.24       0.075
  WS02004139           JUNCTION      0.32   396.51     0  00:00     0.00905        7.24       0.620
  WS02004407           JUNCTION      0.00   309.37     0  03:16           0        2.45       0.120
  WS02006228           JUNCTION      0.00   311.38     0  03:07           0        2.55       0.390
  WS02006229           JUNCTION      0.00   311.45     0  03:07           0        2.56       0.331
  WS02006280           JUNCTION      0.00   105.69     0  02:18           0       0.594       0.013
  WS02006284           JUNCTION      0.10   105.69     0  02:18      0.0027       0.595       0.190
  WS02006287           JUNCTION      0.00   105.60     0  02:17           0       0.593       0.116
  WSF200               JUNCTION      0.00   307.97     0  03:21           0        2.38       0.084
  HS02004901           JUNCTION      5.59     5.59     0  02:08      0.0177      0.0179      10.883
  HS02004881           JUNCTION      2.27    18.44     0  02:18     0.00773      0.0797       0.073
  HS02004876           JUNCTION      3.59    16.53     0  02:17      0.0148      0.0725       0.712
  HS02004870           JUNCTION      4.00    13.05     0  02:17      0.0146      0.0578       0.182
  HS02004862           JUNCTION      3.35     9.38     0  02:17      0.0201      0.0434       0.381
  HS02004856           JUNCTION      2.97     6.09     0  02:17       0.011      0.0247       6.167
  HS02004852           JUNCTION      0.00     3.36     0  02:17           0      0.0138       0.334
  HS02004848           JUNCTION      6.37     6.37     0  02:18      0.0343      0.0343       0.122
  HS02004842           JUNCTION      0.00     4.48     0  00:03           0      0.0336      63.182
  HS02004837           JUNCTION     12.75    15.64     0  02:14       0.204       0.225       0.364
  HS02004830           JUNCTION      0.15    15.78     0  02:15     0.00423       0.215       0.574
  HS02004824           JUNCTION      7.07    22.76     0  02:19      0.0452       0.259       0.208
  HS02004817           JUNCTION      0.60    23.36     0  02:19      0.0169       0.276       6.429
  HS02004807           JUNCTION      7.53    30.16     0  02:18      0.0269       0.286       1.499
  HS02004802           JUNCTION      0.00    30.20     0  02:19           0       0.282       1.466
  HS02004799           JUNCTION      5.79    64.36     0  02:15      0.0217       0.285       0.809
  HS02004792           JUNCTION     26.07    58.78     0  02:15      0.0985       0.263       0.160
  HS02004788           JUNCTION      9.52    34.34     0  02:16      0.0772       0.166       0.237
  HS02004785           JUNCTION      0.15    25.26     0  02:15     0.00423      0.0907       0.525
  HS02004777           JUNCTION      0.03    25.63     0  02:13    0.000846      0.0909       6.021
  HS02004770           JUNCTION     21.96    26.67     0  02:11      0.0757      0.0918       3.489
  HS02004480           JUNCTION      0.00    75.70     0  02:17           0       0.327       0.200
  HS02004479           JUNCTION      0.00    11.60     0  02:18           0       0.055       1.342
  HS02004478           JUNCTION      0.00   105.60     0  02:17           0       0.594       0.112
  YS02001745           JUNCTION     31.47    31.47     0  03:00       0.402       0.416       0.794
  YS02001748           JUNCTION      0.04    37.98     0  07:09     0.00127       0.423       3.663
  YS02001751           JUNCTION      0.01    56.46     0  04:28     0.00031       0.395       5.759
  YS02001754           JUNCTION      0.26    88.07     0  03:27     0.00733       0.381       6.918
  YS02001762           JUNCTION      0.00    49.52     0  03:32           0       0.406       5.766
  YS02001765           JUNCTION      0.00    53.82     0  03:31           0       0.409       6.475
  YS02001767           JUNCTION      0.54    48.50     0  02:32      0.0151       0.431       9.214
  YS02001770           JUNCTION     41.36    47.88     0  02:48       0.486       0.504       6.940
  YS02001774           JUNCTION      0.00    24.19     0  02:28           0      0.0777      51.213
  YS02001779           JUNCTION      0.01    17.68     0  04:49    0.000141      0.0328      89.595
  YS02001882           JUNCTION      0.00     1.95     0  02:10           0     0.00307      81.442
  YS02001884           JUNCTION      0.00     6.03     0  02:04           0      0.0125      50.794
  YS02001759           JUNCTION     40.73    88.14     0  02:59       0.457       0.827       2.988
  YS02001887           JUNCTION     54.91    54.91     0  02:41       0.563       0.568       1.149
  YS02001890           JUNCTION      0.00    54.60     0  02:43           0       0.551       1.308
  YS02001898           JUNCTION      0.00    54.39     0  02:46           0       0.541       0.311
  YS02001901           JUNCTION      0.00    54.46     0  02:48           0       0.541       0.902
  YS02001904           JUNCTION      0.00    54.18     0  02:49           0        0.54       0.841
  YS02001907           JUNCTION      0.00    97.87     0  02:55           0        1.15       1.857
  YS02001910           JUNCTION      0.00    44.31     0  03:01           0       0.619       1.524
  YS02001915           JUNCTION     28.47    44.03     0  03:01       0.349       0.623       0.604
  YS02001918           JUNCTION      0.00    15.70     0  03:03           0       0.274       0.280
  YS02001619           JUNCTION     27.58    27.58     0  02:57       0.343       0.343       3.254
  YS02001629           JUNCTION      0.00    34.38     0  04:48           0       0.268      10.848
  YS02001641           JUNCTION      0.00    57.83     0  02:36           0       0.558       4.060
  YS02001644           JUNCTION     29.86    84.52     0  02:45       0.385       0.915       3.022
  YS02001652           JUNCTION      0.00    45.92     0  02:43           0       0.374       6.828
  YS02001655           JUNCTION      0.15    53.89     0  04:34     0.00434       0.395       6.169
  YS02001920           JUNCTION      2.87    15.71     0  03:02      0.0809       0.276       0.592
  YS02001923           JUNCTION      0.04    12.84     0  03:02     0.00106       0.195       0.106
  YS02001926           JUNCTION      0.05    12.83     0  03:01     0.00147       0.196       0.768
  YS02001929           JUNCTION     12.78    12.78     0  03:01       0.194       0.194       0.100
  YS02001658           JUNCTION      0.00    38.45     0  02:43           0       0.406       3.865
  YS02001661           JUNCTION      0.00    38.45     0  02:43           0       0.408       1.589
  YS02001664           JUNCTION     38.46    38.46     0  02:43       0.404       0.404       0.032
  YS02001622           JUNCTION      0.00    28.90     0  02:46           0       0.332       9.499
  YS02001633           JUNCTION     30.40    66.90     0  02:37       0.398       0.618       5.609
  YS02001649           JUNCTION      0.00   126.12     0  02:46           0        1.19       3.343
  YS02001757           JUNCTION      0.00   254.34     0  03:17           0        2.27       4.275
  YS02001895           JUNCTION      0.00    54.42     0  02:47           0       0.544       0.564
  YS02001625           JUNCTION      0.00    33.17     0  04:47           0       0.305      14.568
  YS02163301           JUNCTION      0.00    35.45     0  02:37           0       0.246      11.168
  YS02163601           JUNCTION      0.11    62.06     0  02:37      0.0031       0.584       5.595
  YS02164001           JUNCTION      0.00    59.92     0  02:36           0       0.563       3.992
  YS02001647           JUNCTION      0.00    86.67     0  02:46           0       0.876       3.412
  YSB1154              JUNCTION      6.39     6.39     0  02:13      0.0263      0.0276       5.521
  YSB6556              JUNCTION      0.00     6.34     0  02:14           0      0.0286       4.538
  YSB1174              JUNCTION      6.34     6.34     0  02:08      0.0193      0.0202       6.788
  YSB1171              JUNCTION      0.00    11.67     0  02:15           0      0.0543      13.153
  YS02006553           JUNCTION      0.00    97.91     0  02:55           0        1.14       1.211
  YS02006561           JUNCTION      0.00   143.65     0  02:53           0         1.6       0.031
  YS02006556           JUNCTION      0.00    97.95     0  02:57           0        1.14       0.865
  YS02006558           JUNCTION     46.23   143.66     0  02:53       0.513        1.63       0.261
  YS02001783           JUNCTION      0.00   143.64     0  02:53           0         1.6       0.071
  YS02001784           JUNCTION      1.06   144.70     0  02:54      0.0299        1.63       0.120
  YS02001786           JUNCTION      0.06   144.73     0  02:54     0.00159        1.63       0.116
  YS02001788           JUNCTION      0.07   144.80     0  02:54       0.002        1.63       0.066
  YS02001790           JUNCTION      0.15   144.95     0  02:55     0.00437        1.64       0.084
  YS02001791           JUNCTION      0.00   144.94     0  02:55           0        1.63       0.039
  YS02001793           JUNCTION      0.00   220.28     0  02:53           0        1.64       0.052
  WSC                  OUTFALL       0.00   713.27     0  03:24           0        10.1       0.000
  JK-storage           STORAGE       0.00   561.06     0  02:54           0        1.79     -20.082
  CC-storage           STORAGE       0.00   209.47     0  02:58           0        2.17       2.170
  XR-storage           STORAGE     254.76   254.76     0  02:50        6.34        6.94      -4.174
  
  
  **********************
  Node Surcharge Summary
  **********************
  
  Surcharging occurs when water rises above the top of the highest conduit.
  ---------------------------------------------------------------------
                                               Max. Height   Min. Depth
                                   Hours       Above Crown    Below Rim
  Node                 Type      Surcharged         Meters       Meters
  ---------------------------------------------------------------------
  WS02006256           JUNCTION        5.02          2.050        0.000
  YS02001754           JUNCTION        1.28          0.110        1.040
  YS02001762           JUNCTION        3.45          0.364        0.786
  YS02001765           JUNCTION        3.10          0.312        0.788
  YS02001767           JUNCTION        2.83          0.273        0.757
  YS02001770           JUNCTION        2.54          0.239        0.681
  YS02001774           JUNCTION        3.31          0.343        0.707
  YS02001779           JUNCTION        0.97          0.079        0.601
  YS02001759           JUNCTION        3.68          0.400        0.810
  YS02001641           JUNCTION        3.20          0.326        0.774
  YS02001644           JUNCTION        3.23          0.332        0.588
  YS02001652           JUNCTION        1.63          0.136        0.994
  YS02001633           JUNCTION        2.94          0.288        0.772
  YS02001649           JUNCTION        3.52          0.374        0.676
  YS02001757           JUNCTION        4.29          0.504        0.706
  YS02001625           JUNCTION        1.84          0.159        0.621
  YS02163301           JUNCTION        2.61          0.247        0.783
  YS02163601           JUNCTION        3.47          0.364        0.716
  YS02164001           JUNCTION        3.05          0.305        0.795
  YS02001647           JUNCTION        1.79          0.154        0.746
  
  
  *********************
  Node Flooding Summary
  *********************
  
  Flooding refers to all water that overflows a node, whether it ponds or not.
  --------------------------------------------------------------------------
                                                             Total   Maximum
                                 Maximum   Time of Max       Flood    Ponded
                        Hours       Rate    Occurrence      Volume     Depth
  Node                 Flooded       LPS   days hr:min    10^6 ltr    Meters
  --------------------------------------------------------------------------
  WS02006256              0.86    978.40      0  00:00       0.598     0.000
  
  
  **********************
  Storage Volume Summary
  **********************
  
  --------------------------------------------------------------------------------------------------
                         Average     Avg  Evap Exfil       Maximum     Max    Time of Max    Maximum
                          Volume    Pcnt  Pcnt  Pcnt        Volume    Pcnt     Occurrence    Outflow
  Storage Unit           1000 m3    Full  Loss  Loss       1000 m3    Full    days hr:min        LPS
  --------------------------------------------------------------------------------------------------
  JK-storage               0.046      16     0     0         0.228      78       0  02:51     983.00
  CC-storage               0.878       6     0     0         2.121      14       0  07:50       0.00
  XR-storage               0.207      22     0     0         0.615      66       0  06:35     380.00
  
  
  ***********************
  Outfall Loading Summary
  ***********************
  
  ---------------------------------------------------------------------------------------------------------------------------------
                         Flow       Avg       Max       Total         Total         Total         Total         Total         Total
                         Freq      Flow      Flow      Volume           COD            SS            TN            TP         NH4-N
  Outfall Node           Pcnt       LPS       LPS    10^6 ltr            kg            kg            kg            kg            kg
  ---------------------------------------------------------------------------------------------------------------------------------
  WSC                   99.95    364.10    713.27      10.065      1594.361      2552.346       148.378        18.461        92.509
  ---------------------------------------------------------------------------------------------------------------------------------
  System                99.95    364.10    713.27      10.065      1594.361      2552.346       148.378        18.461        92.509
  
  
  ********************
  Link Flow Summary
  ********************
  
  -----------------------------------------------------------------------------
                                 Maximum  Time of Max   Maximum    Max/    Max/
                                  |Flow|   Occurrence   |Veloc|    Full    Full
  Link                 Type          LPS  days hr:min     m/sec    Flow   Depth
  -----------------------------------------------------------------------------
  WS02003066WSF200     CONDUIT    307.97     0  03:21      2.50    0.05    0.17
  WS02006287WS02006284 CONDUIT    105.59     0  02:18      1.28    0.05    0.16
  WS02006284WS02006280 CONDUIT    105.69     0  02:18      1.53    0.04    0.14
  WS02006280WS02006229 CONDUIT    105.69     0  02:18      2.46    0.02    0.10
  WS02006229WS02006228 CONDUIT    311.38     0  03:07      0.96    1.03    0.88
  WS02006256WS02006235 CONDUIT    288.60     0  00:00      4.23    3.05    1.00
  WS02006253WS02006251 CONDUIT     18.93     0  02:18      0.37    0.06    0.19
  WS02006252WS02006251 CONDUIT      0.00     0  00:00      0.00    0.00    0.00
  WS02006251WS02006249 CONDUIT     18.97     0  02:19      0.41    0.05    0.18
  WS02006249WS02006248 CONDUIT     18.92     0  02:21      0.48    0.10    0.16
  WS02006248WS02006247 CONDUIT     18.92     0  02:21      0.48    0.04    0.20
  WS02006247WS02006245 CONDUIT     18.90     0  02:22      0.43    0.15    0.27
  WS02006245WS02006243 CONDUIT     26.95     0  05:35      0.56    0.08    0.33
  WS02006243WS02006242 CONDUIT     45.77     0  05:35      0.44    0.10    0.47
  WS02006242WS02006240 CONDUIT     65.38     0  03:21      0.90    0.26    0.58
  WS02006240WS02006239 CONDUIT     85.71     0  03:20      0.76    0.27    0.60
  WS02006239WS02006238 CONDUIT    121.08     0  00:01      0.88    0.39    0.72
  WS02006238WS02006235 CONDUIT    164.86     0  00:00      1.46    0.37    0.76
  WS02006235WS02006234 CONDUIT    256.43     0  03:11      1.09    2.71    0.71
  WS02006234WS02006232 CONDUIT    256.40     0  03:12      1.39    0.52    0.77
  WS02006232WS02006231 CONDUIT    256.41     0  03:14      0.85    0.54    0.73
  WS02006231WS02006230 CONDUIT    256.32     0  03:14      1.20    3.89    0.54
  WS02006230WS02006229 CONDUIT    266.70     0  03:14      0.90    5.94    0.95
  WS02006228WS02006109 CONDUIT    311.38     0  03:07      0.79    1.36    0.91
  WS02006116WS02004401 CONDUIT    310.06     0  03:13      0.57    0.43    0.66
  WS02006115WS02006116 CONDUIT    310.59     0  03:12      0.70    0.40    0.57
  WS02006113WS02006111 CONDUIT    315.14     0  03:08      2.03    0.38    0.35
  WS02006112WS02006115 CONDUIT    311.77     0  03:10      0.56    0.18    0.69
  WS02006111WS02006112 CONDUIT    312.29     0  03:08      0.94    0.15    0.63
  WS02006110WS02006113 CONDUIT    312.49     0  03:08      0.86    0.28    0.68
  WS02006109WS02006110 CONDUIT    312.62     0  03:08      0.68    0.60    0.86
  WS02004411WS02004412 CONDUIT    308.14     0  03:19      0.71    0.44    0.54
  WS02004401WS02004402 CONDUIT    309.60     0  03:14      0.54    0.37    0.69
  WS02004413WS02003067 CONDUIT    307.97     0  03:20      0.82    0.13    0.48
  WS02004412WS02004413 CONDUIT    308.01     0  03:20      0.59    0.21    0.63
  WS02004410WS02004411 CONDUIT    308.38     0  03:18      0.74    0.42    0.52
  WS02004409WS02004410 CONDUIT    308.80     0  03:17      0.79    0.40    0.50
  WS02004407WS02004409 CONDUIT    309.36     0  03:16      1.26    0.11    0.36
  WS02004406WS02004407 CONDUIT    309.37     0  03:16      0.75    0.14    0.52
  WS02004405WS02004406 CONDUIT    309.40     0  03:15      0.45    0.61    0.81
  WS02004404WS02004405 CONDUIT    309.40     0  03:15      0.46    3.03    0.80
  WS02004403WS02004404 CONDUIT    309.27     0  03:15      0.51    0.22    0.77
  WS02004402WS02004403 CONDUIT    309.36     0  03:14      0.51    0.44    0.72
  WS02004139WS02001211 CONDUIT    381.02     0  03:30      0.90    0.48    0.58
  WS02004138WS02004139 CONDUIT    396.19     0  00:00      3.65    0.08    0.43
  WS02003067WS02003066 CONDUIT    307.97     0  03:21      0.88    0.10    0.35
  WS02001213WS02003059 CONDUIT    392.19     0  03:30      0.88    0.65    0.73
  WS02001212WS02001213 CONDUIT    390.35     0  03:30      1.32    0.60    0.43
  WS02001211WS02001212 CONDUIT    389.29     0  03:30      0.78    0.30    0.63
  WS02003072WS02003073 CONDUIT    711.47     0  03:23      1.57    1.54    0.42
  WS02003069WS02003072 CONDUIT    711.49     0  03:23      1.48    0.34    0.44
  WS02003060WS02003069 CONDUIT    711.20     0  03:22      1.74    0.28    0.39
  WS02003059WS02003060 CONDUIT    394.91     0  03:31      0.95    0.26    0.60
  HS02004901HS02004770 CONDUIT      4.97     0  02:14      0.03    0.02    0.25
  HS02004876HS02004881 CONDUIT     16.45     0  02:19      0.34    0.17    0.07
  HS02004870HS02004876 CONDUIT     13.03     0  02:17      0.24    0.01    0.08
  HS02004842HS02004848 CONDUIT      3.17     0  02:27      0.02    0.00    0.26
  HS02004837HS02004842 CONDUIT      4.48     0  00:03      0.42    0.00    0.27
  HS02004830HS02004837 CONDUIT     15.63     0  02:15      0.37    0.02    0.06
  HS02004824HS02004830 CONDUIT     15.78     0  02:16      0.41    0.02    0.05
  HS02004817HS02004824 CONDUIT     22.76     0  02:19      0.17    0.01    0.36
  HS02004770HS02004777 CONDUIT     25.60     0  02:13      0.14    0.05    0.26
  HS02004799HS02004480 CONDUIT     64.22     0  02:16      0.41    0.08    0.22
  HS02004792HS02004799 CONDUIT     58.74     0  02:15      0.48    0.04    0.18
  HS02004788HS02004792 CONDUIT     34.31     0  02:17      0.64    0.02    0.08
  HS02004785HS02004788 CONDUIT     25.15     0  02:17      0.37    0.19    0.10
  HS02004777HS02004785 CONDUIT     25.11     0  02:15      0.17    0.03    0.21
  HS02004480HS02004478 CONDUIT     75.64     0  02:17      0.72    0.32    0.15
  HS02004479HS02004480 CONDUIT     11.71     0  02:19      0.15    0.01    0.22
  HS02004862HS02004870 CONDUIT      9.35     0  02:19      0.34    0.01    0.04
  HS02004848HS02004852 CONDUIT      3.36     0  02:17      0.22    0.00    0.02
  HS02004856HS02004862 CONDUIT      6.06     0  02:18      0.25    0.01    0.04
  HS02004852HS02004856 CONDUIT      3.33     0  02:19      0.06    0.00    0.08
  HS02004802HS02004478 CONDUIT     30.33     0  02:21      0.22    0.03    0.20
  HS02004478WS02006287 CONDUIT    105.60     0  02:17      0.97    0.03    0.12
  HS02004817HS02004807 CONDUIT     23.53     0  02:22      0.07    0.01    0.45
  HS02004807HS02004802 CONDUIT     30.20     0  02:19      0.19    0.06    0.24
  YS02001759YS02001757 CONDUIT     83.92     0  02:59      0.13    0.06    1.00
  YS02001762YS02001759 CONDUIT     52.59     0  03:31      0.17    0.06    1.00
  YS02001765YS02001762 CONDUIT     49.52     0  03:32      0.23    0.05    1.00
  YS02001770YS02001767 CONDUIT     47.96     0  02:32      0.28    0.19    1.00
  YS02001774YS02001770 CONDUIT     24.19     0  02:28      0.12    0.02    1.00
  YS02001779YS02001774 CONDUIT     17.68     0  04:49      0.06    0.01    1.00
  YS02001649YS02001757 CONDUIT    123.14     0  02:54      0.17    0.07    1.00
  YS02001767YS02001765 CONDUIT     53.82     0  03:31      0.26    0.07    1.00
  YS02006561YS02001783 CONDUIT    143.64     0  02:53      1.45    0.07    0.25
  YS02001783YS02001784 CONDUIT    143.64     0  02:54      0.96    0.20    0.34
  YS02001784YS02001785 CONDUIT    144.68     0  02:54      0.99    0.34    0.33
  YS02001788YS02001790 CONDUIT    144.79     0  02:55      1.52    0.11    0.24
  YS02001790YS02001791 CONDUIT    144.94     0  02:55      1.78    0.16    0.23
  YS02001791YS02001793 CONDUIT    156.29     0  02:54      3.47    0.07    0.43
  YS02001910YS02001907 CONDUIT     44.36     0  03:01      0.49    0.03    0.60
  YS02001786YS02001788 CONDUIT    144.73     0  02:54      1.37    0.28    0.26
  YS02001915YS02001910 CONDUIT     44.31     0  03:01      0.44    0.02    0.39
  YS02001918YS02001915 CONDUIT     15.69     0  03:04      0.44    0.01    0.17
  YS02001923YS02001920 CONDUIT     12.84     0  03:02      0.29    0.01    0.11
  YS02001926YS02001923 CONDUIT     12.80     0  03:02      0.36    0.02    0.09
  YS02001929YS02001926 CONDUIT     12.78     0  03:01      0.36    0.01    0.09
  YS02001920YS02001918 CONDUIT     15.70     0  03:03      0.33    0.02    0.11
  YS02001629YS02163301 CONDUIT     35.45     0  02:37      0.08    0.04    1.00
  YS02001619YS02001622 CONDUIT     28.90     0  02:46      0.53    0.04    0.85
  YS02001622YS02001625 CONDUIT     31.36     0  02:46      0.16    0.02    0.93
  YS02001625YS02001629 CONDUIT     34.38     0  04:48      0.16    0.02    0.92
  YS02163301YS02001633 CONDUIT     37.97     0  02:37      0.07    0.04    1.00
  YS02163601YS02164001 CONDUIT     59.92     0  02:36      0.11    0.05    1.00
  YS02164001YS02001641 CONDUIT     57.83     0  02:36      0.11    0.08    1.00
  YS02001641YS02001644 CONDUIT     55.58     0  02:36      0.12    0.18    1.00
  YS02001647YS02001649 CONDUIT     86.27     0  02:46      0.16    0.05    1.00
  YS02006553YS02006556 CONDUIT     97.95     0  02:57      0.18    0.08    0.68
  YS02006556YS02006558 CONDUIT     97.94     0  02:57      0.16    0.08    0.71
  YSB6556YSB1171       CONDUIT      6.38     0  02:19      0.03    0.01    0.49
  YS02001907YS02006553 CONDUIT     97.91     0  02:55      0.14    0.12    0.78
  YS02006558YS02006561 CONDUIT    143.65     0  02:53      1.87    0.32    0.32
  YS02001633YS02163601 CONDUIT     61.95     0  02:37      0.11    0.07    1.00
  YS02001644YS02001647 CONDUIT     86.67     0  02:46      0.18    0.05    1.00
  YS02001745YS02001748 CONDUIT     37.94     0  07:09      1.12    0.01    0.43
  YS02001748YS02001751 CONDUIT     56.45     0  04:28      0.90    0.03    0.79
  YS02001751YS02001754 CONDUIT     59.64     0  03:21      0.83    0.03    0.94
  YS02001754YS02001757 CONDUIT     78.35     0  03:27      0.33    0.03    1.00
  YS02001882YS02001884 CONDUIT      1.95     0  02:10      0.06    0.00    0.32
  YS02001884YS02001887 CONDUIT      6.03     0  02:04      0.04    0.01    0.42
  YS02001890YS02001895 CONDUIT     54.42     0  02:47      0.19    0.03    0.39
  YS02001895YS02001898 CONDUIT     54.39     0  02:46      0.42    0.09    0.25
  YS02001898YS02001901 CONDUIT     54.46     0  02:48      0.24    0.04    0.33
  YS02001901YS02001904 CONDUIT     54.18     0  02:49      0.21    0.08    0.38
  YS02001904YS02001907 CONDUIT     54.29     0  02:51      0.13    0.02    0.54
  YS02001887YS02001890 CONDUIT     54.60     0  02:43      0.15    0.09    0.47
  YS02001652YS02001649 CONDUIT     48.17     0  03:30      0.26    0.02    1.00
  YS02001655YS02001652 CONDUIT     45.92     0  02:43      0.89    0.02    0.96
  YS02001658YS02001655 CONDUIT     53.74     0  04:34      1.04    0.02    0.77
  YS02001661YS02001658 CONDUIT     38.45     0  02:43      1.15    0.02    0.45
  YS02001664YS02001661 CONDUIT     38.45     0  02:43      0.75    0.01    0.20
  YSB1154YSB6556       CONDUIT      6.34     0  02:14      0.19    0.01    0.38
  YSB1174YSB1171       CONDUIT      5.92     0  02:10      0.03    0.01    0.50
  YSB1171HS02004479    CONDUIT     11.60     0  02:18      0.54    0.01    0.38
  HS02004881HS02006253 CONDUIT     18.44     0  02:18      1.24    0.00    0.02
  YS02001793JiankangQianchi CONDUIT    561.06     0  02:54     10.54    0.04    0.78
  YS02001757CaochengTiaoxuchi CONDUIT    209.47     0  02:58      0.55    0.09    0.88
  WSF200WS02003060     CONDUIT    307.97     0  03:21      1.64    0.07    0.27
  1                    CONDUIT    713.27     0  03:24      3.03    0.25    0.34
  CC-Pump-1            PUMP         0.00     0  00:00              0.00
  CC-Pump-2            PUMP         0.00     0  00:00              0.00
  JK-Pump-1            PUMP       300.00     0  00:00              1.00
  JK-Pump-2            PUMP       683.00     0  00:00              1.00
  XR-Pump-1            PUMP        95.00     0  00:00              1.00
  XR-Pump-2            PUMP        95.00     0  00:00              1.00
  XR-Pump-3            PUMP        95.00     0  00:00              1.00
  XR-Pump-4            PUMP        95.00     0  00:00              1.00
  
  
  ***************************
  Flow Classification Summary
  ***************************
  
  -------------------------------------------------------------------------------------
                      Adjusted    ---------- Fraction of Time in Flow Class ---------- 
                       /Actual         Up    Down  Sub   Sup   Up    Down  Norm  Inlet 
  Conduit               Length    Dry  Dry   Dry   Crit  Crit  Crit  Crit  Ltd   Ctrl  
  -------------------------------------------------------------------------------------
  WS02003066WSF200        1.00   0.06  0.18  0.00  0.00  0.76  0.00  0.00  0.71  0.00
  WS02006287WS02006284    1.00   0.08  0.06  0.00  0.62  0.24  0.00  0.00  0.81  0.00
  WS02006284WS02006280    1.00   0.10  0.00  0.00  0.00  0.00  0.00  0.90  0.00  0.00
  WS02006280WS02006229    1.00   0.10  0.00  0.00  0.00  0.00  0.00  0.90  0.00  0.00
  WS02006229WS02006228    1.00   0.00  0.00  0.00  0.99  0.00  0.00  0.01  0.00  0.00
  WS02006256WS02006235    1.00   0.00  0.00  0.00  0.99  0.01  0.00  0.00  0.00  0.00
  WS02006253WS02006251    1.00   0.04  0.05  0.00  0.90  0.00  0.01  0.00  0.00  0.00
  WS02006252WS02006251    1.00   1.00  0.00  0.00  0.00  0.00  0.00  0.00  0.00  0.00
  WS02006251WS02006249    1.00   0.00  0.00  0.00  1.00  0.00  0.00  0.00  0.98  0.00
  WS02006249WS02006248    1.00   0.00  0.02  0.00  0.13  0.00  0.85  0.00  0.00  0.00
  WS02006248WS02006247    1.00   0.02  0.00  0.00  0.94  0.00  0.00  0.04  0.75  0.00
  WS02006247WS02006245    1.00   0.02  0.00  0.00  0.91  0.00  0.00  0.07  0.00  0.00
  WS02006245WS02006243    1.00   0.01  0.00  0.00  0.77  0.00  0.00  0.22  0.10  0.00
  WS02006243WS02006242    1.00   0.01  0.00  0.00  0.99  0.00  0.00  0.00  0.69  0.00
  WS02006242WS02006240    1.00   0.00  0.00  0.00  1.00  0.00  0.00  0.00  0.00  0.00
  WS02006240WS02006239    1.00   0.00  0.00  0.00  0.63  0.00  0.00  0.36  0.03  0.00
  WS02006239WS02006238    1.00   0.00  0.00  0.00  1.00  0.00  0.00  0.00  0.37  0.00
  WS02006238WS02006235    1.00   0.00  0.00  0.00  1.00  0.00  0.00  0.00  0.00  0.00
  WS02006235WS02006234    1.00   0.00  0.00  0.00  0.72  0.00  0.28  0.00  0.00  0.00
  WS02006234WS02006232    1.00   0.00  0.00  0.00  1.00  0.00  0.00  0.00  0.25  0.00
  WS02006232WS02006231    1.00   0.00  0.00  0.00  0.99  0.00  0.01  0.00  0.00  0.00
  WS02006231WS02006230    1.00   0.00  0.00  0.00  0.02  0.00  0.98  0.00  0.00  0.00
  WS02006230WS02006229    1.00   0.00  0.00  0.00  0.99  0.00  0.00  0.01  0.02  0.00
  WS02006228WS02006109    1.00   0.00  0.00  0.00  0.99  0.00  0.00  0.00  0.00  0.00
  WS02006116WS02004401    1.00   0.03  0.00  0.00  0.97  0.00  0.00  0.00  0.01  0.00
  WS02006115WS02006116    1.00   0.03  0.00  0.00  0.92  0.00  0.00  0.05  0.01  0.00
  WS02006113WS02006111    1.00   0.02  0.00  0.00  0.00  0.98  0.00  0.00  0.19  0.00
  WS02006112WS02006115    1.00   0.02  0.01  0.00  0.97  0.00  0.00  0.00  0.00  0.00
  WS02006111WS02006112    1.00   0.02  0.00  0.00  0.98  0.00  0.00  0.00  0.98  0.00
  WS02006110WS02006113    1.00   0.01  0.01  0.00  0.98  0.00  0.00  0.00  0.00  0.00
  WS02006109WS02006110    1.00   0.00  0.01  0.00  0.99  0.00  0.00  0.00  0.00  0.00
  WS02004411WS02004412    1.00   0.16  0.00  0.00  0.84  0.00  0.00  0.00  0.00  0.00
  WS02004401WS02004402    1.00   0.03  0.00  0.00  0.97  0.00  0.00  0.00  0.01  0.00
  WS02004413WS02003067    1.00   0.17  0.05  0.00  0.00  0.00  0.78  0.00  0.00  0.00
  WS02004412WS02004413    1.00   0.16  0.00  0.00  0.84  0.00  0.00  0.00  0.02  0.00
  WS02004410WS02004411    1.00   0.16  0.00  0.00  0.84  0.00  0.00  0.00  0.00  0.00
  WS02004409WS02004410    1.00   0.16  0.00  0.00  0.84  0.00  0.00  0.00  0.00  0.00
  WS02004407WS02004409    1.00   0.16  0.00  0.00  0.83  0.01  0.00  0.00  0.78  0.00
  WS02004406WS02004407    1.00   0.00  0.15  0.00  0.84  0.00  0.00  0.00  0.00  0.00
  WS02004405WS02004406    1.00   0.00  0.00  0.00  1.00  0.00  0.00  0.00  0.02  0.00
  WS02004404WS02004405    1.00   0.00  0.00  0.00  1.00  0.00  0.00  0.00  0.00  0.00
  WS02004403WS02004404    1.00   0.00  0.03  0.00  0.97  0.00  0.00  0.00  0.02  0.00
  WS02004402WS02004403    1.00   0.03  0.00  0.00  0.97  0.00  0.00  0.00  0.00  0.00
  WS02004139WS02001211    1.00   0.00  0.00  0.00  1.00  0.00  0.00  0.00  0.00  0.00
  WS02004138WS02004139    1.00   0.00  0.02  0.00  0.97  0.01  0.00  0.00  1.00  0.00
  WS02003067WS02003066    1.00   0.22  0.01  0.00  0.77  0.00  0.00  0.00  0.00  0.00
  WS02001213WS02003059    1.00   0.00  0.00  0.00  0.99  0.00  0.00  0.00  0.00  0.00
  WS02001212WS02001213    1.00   0.00  0.00  0.00  0.54  0.00  0.45  0.00  0.00  0.00
  WS02001211WS02001212    1.00   0.00  0.00  0.00  1.00  0.00  0.00  0.00  0.00  0.00
  WS02003072WS02003073    1.00   0.00  0.00  0.00  0.00  0.00  0.00  1.00  0.00  0.00
  WS02003069WS02003072    1.00   0.00  0.00  0.00  0.99  0.01  0.00  0.00  0.39  0.00
  WS02003060WS02003069    1.00   0.00  0.00  0.00  0.94  0.06  0.00  0.00  0.30  0.00
  WS02003059WS02003060    1.00   0.00  0.00  0.00  1.00  0.00  0.00  0.00  0.00  0.00
  HS02004901HS02004770    1.00   0.10  0.00  0.00  0.90  0.00  0.00  0.00  0.02  0.00
  HS02004876HS02004881    1.00   0.02  0.00  0.00  0.98  0.00  0.00  0.00  0.00  0.00
  HS02004870HS02004876    1.00   0.01  0.00  0.00  0.99  0.01  0.00  0.00  0.95  0.00
  HS02004842HS02004848    1.00   0.00  0.11  0.00  0.89  0.00  0.00  0.00  0.70  0.00
  HS02004837HS02004842    1.00   0.00  0.00  0.00  0.99  0.01  0.00  0.00  0.11  0.00
  HS02004830HS02004837    1.00   0.00  0.00  0.00  1.00  0.00  0.00  0.00  0.99  0.00
  HS02004824HS02004830    1.00   0.00  0.00  0.00  1.00  0.00  0.00  0.00  0.00  0.00
  HS02004817HS02004824    1.00   0.00  0.00  0.00  1.00  0.00  0.00  0.00  1.00  0.00
  HS02004770HS02004777    1.00   0.00  0.10  0.00  0.90  0.00  0.00  0.00  0.07  0.00
  HS02004799HS02004480    1.00   0.00  0.03  0.00  0.85  0.00  0.12  0.00  0.00  0.00
  HS02004792HS02004799    1.00   0.00  0.00  0.00  0.99  0.01  0.00  0.00  0.98  0.00
  HS02004788HS02004792    1.00   0.00  0.00  0.00  0.99  0.01  0.00  0.00  0.98  0.00
  HS02004785HS02004788    1.00   0.00  0.00  0.00  1.00  0.00  0.00  0.00  0.00  0.00
  HS02004777HS02004785    1.00   0.00  0.00  0.00  1.00  0.00  0.00  0.00  0.20  0.00
  HS02004480HS02004478    1.00   0.12  0.00  0.00  0.63  0.00  0.00  0.25  0.00  0.00
  HS02004479HS02004480    1.00   0.03  0.00  0.00  0.97  0.00  0.00  0.00  0.16  0.00
  HS02004862HS02004870    1.00   0.00  0.00  0.00  1.00  0.00  0.00  0.00  0.06  0.00
  HS02004848HS02004852    1.00   0.11  0.00  0.00  0.89  0.00  0.00  0.00  0.71  0.00
  HS02004856HS02004862    1.00   0.00  0.19  0.00  0.81  0.00  0.00  0.00  0.75  0.00
  HS02004852HS02004856    1.00   0.10  0.03  0.00  0.87  0.00  0.00  0.00  0.82  0.00
  HS02004802HS02004478    1.00   0.10  0.02  0.00  0.87  0.00  0.00  0.00  0.00  0.00
  HS02004478WS02006287    1.00   0.14  0.00  0.00  0.86  0.00  0.00  0.00  0.81  0.00
  HS02004817HS02004807    1.00   0.00  0.10  0.00  0.90  0.00  0.00  0.00  0.00  0.00
  HS02004807HS02004802    1.00   0.10  0.00  0.00  0.89  0.00  0.00  0.01  0.01  0.00
  YS02001759YS02001757    1.00   0.00  0.00  0.00  1.00  0.00  0.00  0.00  0.18  0.00
  YS02001762YS02001759    1.00   0.00  0.00  0.00  1.00  0.00  0.00  0.00  0.04  0.00
  YS02001765YS02001762    1.00   0.00  0.00  0.00  1.00  0.00  0.00  0.00  0.22  0.00
  YS02001770YS02001767    1.00   0.00  0.00  0.00  1.00  0.00  0.00  0.00  0.00  0.00
  YS02001774YS02001770    1.00   0.00  0.13  0.00  0.87  0.00  0.00  0.00  0.06  0.00
  YS02001779YS02001774    1.00   0.00  0.00  0.00  1.00  0.00  0.00  0.00  0.27  0.00
  YS02001649YS02001757    1.00   0.00  0.00  0.00  1.00  0.00  0.00  0.00  0.19  0.00
  YS02001767YS02001765    1.00   0.00  0.00  0.00  1.00  0.00  0.00  0.00  0.01  0.00
  YS02006561YS02001783    1.00   0.20  0.00  0.00  0.00  0.80  0.00  0.00  0.73  0.00
  YS02001783YS02001784    1.00   0.00  0.20  0.00  0.80  0.00  0.00  0.00  0.15  0.00
  YS02001784YS02001785    1.00   0.00  0.00  0.00  1.00  0.00  0.00  0.00  0.25  0.00
  YS02001788YS02001790    1.00   0.00  0.00  0.00  0.21  0.79  0.00  0.00  0.99  0.00
  YS02001790YS02001791    1.00   0.00  0.00  0.00  0.01  0.99  0.00  0.00  0.33  0.00
  YS02001791YS02001793    1.00   0.00  0.00  0.00  0.01  0.99  0.00  0.00  0.02  0.00
  YS02001910YS02001907    1.00   0.00  0.00  0.00  0.97  0.00  0.00  0.02  0.13  0.00
  YS02001786YS02001788    1.00   0.00  0.00  0.00  0.28  0.72  0.00  0.00  0.00  0.00
  YS02001915YS02001910    1.00   0.00  0.00  0.00  0.99  0.01  0.00  0.00  0.24  0.00
  YS02001918YS02001915    1.00   0.00  0.01  0.00  0.98  0.01  0.00  0.00  0.81  0.00
  YS02001923YS02001920    1.00   0.00  0.00  0.00  1.00  0.00  0.00  0.00  1.00  0.00
  YS02001926YS02001923    1.00   0.00  0.06  0.00  0.00  0.00  0.94  0.00  0.00  0.00
  YS02001929YS02001926    1.00   0.00  0.10  0.00  0.90  0.00  0.00  0.00  0.86  0.00
  YS02001920YS02001918    1.00   0.00  0.01  0.00  0.99  0.00  0.00  0.00  0.00  0.00
  YS02001629YS02163301    1.00   0.16  0.01  0.00  0.82  0.00  0.00  0.00  0.00  0.00
  YS02001619YS02001622    1.00   0.10  0.00  0.00  0.90  0.00  0.00  0.00  0.00  0.00
  YS02001622YS02001625    1.00   0.10  0.00  0.00  0.90  0.00  0.00  0.00  0.13  0.00
  YS02001625YS02001629    1.00   0.11  0.10  0.00  0.73  0.00  0.06  0.00  0.00  0.00
  YS02163301YS02001633    1.00   0.00  0.16  0.00  0.84  0.00  0.00  0.00  0.00  0.00
  YS02163601YS02164001    1.00   0.00  0.06  0.00  0.94  0.00  0.00  0.00  0.00  0.00
  YS02164001YS02001641    1.00   0.01  0.05  0.00  0.94  0.00  0.00  0.00  0.07  0.00
  YS02001641YS02001644    1.00   0.00  0.01  0.00  0.99  0.00  0.00  0.00  0.00  0.00
  YS02001647YS02001649    1.00   0.00  0.19  0.00  0.80  0.00  0.00  0.00  0.01  0.00
  YS02006553YS02006556    1.00   0.01  0.00  0.00  0.99  0.00  0.00  0.00  0.03  0.00
  YS02006556YS02006558    1.00   0.00  0.00  0.00  1.00  0.00  0.00  0.00  0.00  0.00
  YSB6556YSB1171          1.00   0.03  0.06  0.00  0.91  0.00  0.00  0.00  0.00  0.00
  YS02001907YS02006553    1.00   0.00  0.02  0.00  0.98  0.00  0.00  0.00  0.00  0.00
  YS02006558YS02006561    1.00   0.20  0.00  0.00  0.00  0.80  0.00  0.00  0.72  0.00
  YS02001633YS02163601    1.00   0.00  0.01  0.00  0.99  0.00  0.00  0.00  0.20  0.00
  YS02001644YS02001647    1.00   0.00  0.20  0.00  0.80  0.00  0.00  0.00  0.00  0.00
  YS02001745YS02001748    1.00   0.00  0.00  0.00  0.55  0.03  0.00  0.43  0.30  0.00
  YS02001748YS02001751    1.00   0.00  0.00  0.00  0.90  0.10  0.00  0.00  0.28  0.00
  YS02001751YS02001754    1.00   0.00  0.00  0.00  0.77  0.00  0.00  0.22  0.03  0.00
  YS02001754YS02001757    1.00   0.00  0.00  0.00  0.99  0.01  0.00  0.00  0.26  0.00
  YS02001882YS02001884    1.00   0.15  0.01  0.00  0.84  0.00  0.00  0.00  0.00  0.00
  YS02001884YS02001887    1.00   0.05  0.04  0.00  0.91  0.00  0.00  0.00  0.00  0.00
  YS02001890YS02001895    1.00   0.00  0.17  0.00  0.83  0.00  0.00  0.00  0.00  0.00
  YS02001895YS02001898    1.00   0.17  0.00  0.00  0.79  0.00  0.03  0.00  0.00  0.00
  YS02001898YS02001901    1.00   0.16  0.01  0.00  0.82  0.00  0.00  0.00  0.02  0.00
  YS02001901YS02001904    1.00   0.16  0.00  0.00  0.84  0.00  0.00  0.00  0.00  0.00
  YS02001904YS02001907    1.00   0.00  0.16  0.00  0.84  0.00  0.00  0.00  0.00  0.00
  YS02001887YS02001890    1.00   0.00  0.00  0.00  0.97  0.00  0.02  0.00  0.00  0.00
  YS02001652YS02001649    1.00   0.00  0.00  0.00  1.00  0.00  0.00  0.00  0.26  0.00
  YS02001655YS02001652    1.00   0.00  0.00  0.00  0.78  0.00  0.00  0.22  0.03  0.00
  YS02001658YS02001655    1.00   0.00  0.14  0.00  0.74  0.12  0.00  0.00  0.23  0.00
  YS02001661YS02001658    1.00   0.14  0.00  0.00  0.55  0.31  0.00  0.00  0.41  0.00
  YS02001664YS02001661    1.00   0.10  0.00  0.00  0.90  0.00  0.00  0.00  0.86  0.00
  YSB1154YSB6556          1.00   0.09  0.00  0.00  0.91  0.00  0.00  0.00  0.02  0.00
  YSB1174YSB1171          1.00   0.04  0.03  0.00  0.93  0.00  0.00  0.00  0.00  0.00
  YSB1171HS02004479       1.00   0.03  0.00  0.00  0.96  0.00  0.00  0.01  0.13  0.00
  HS02004881HS02006253    1.00   0.04  0.00  0.00  0.00  0.00  0.00  0.96  0.00  0.00
  YS02001793JiankangQianchi    1.00   0.00  0.00  0.00  0.59  0.41  0.00  0.00  0.65  0.00
  YS02001757CaochengTiaoxuchi    1.00   0.00  0.27  0.00  0.73  0.00  0.00  0.00  0.00  0.00
  WSF200WS02003060        1.00   0.00  0.06  0.00  0.78  0.16  0.00  0.00  0.81  0.00
  1                       1.00   0.00  0.00  0.00  0.00  1.00  0.00  0.00  0.44  0.00
  
  
  *************************
  Conduit Surcharge Summary
  *************************
  
  ----------------------------------------------------------------------------
                                                           Hours        Hours 
                         --------- Hours Full --------   Above Full   Capacity
  Conduit                Both Ends  Upstream  Dnstream   Normal Flow   Limited
  ----------------------------------------------------------------------------
  WS02006229WS02006228        0.01      0.01      0.01      0.25         0.01
  WS02006256WS02006235        2.27      2.28      5.01      1.91         0.01
  WS02006235WS02006234        0.01      0.01      0.01      2.13         0.01
  WS02006231WS02006230        0.01      0.01      0.01      2.56         0.01
  WS02006230WS02006229        0.01      0.01      0.01      3.18         0.01
  WS02006228WS02006109        0.01      0.01      0.01      0.86         0.01
  WS02006111WS02006112        0.01      0.01      0.24      0.01         0.01
  WS02004404WS02004405        0.01      0.01      0.01      3.10         0.01
  WS02003072WS02003073        0.01      0.01      0.01      1.99         0.01
  YS02001759YS02001757        3.68      3.68      4.29      0.01         0.01
  YS02001762YS02001759        3.45      3.45      3.68      0.01         0.01
  YS02001765YS02001762        3.10      3.10      3.45      0.01         0.01
  YS02001770YS02001767        2.78      2.78      2.83      0.01         0.01
  YS02001774YS02001770        2.54      2.54      3.31      0.01         0.01
  YS02001779YS02001774        0.97      0.97      3.31      0.01         0.01
  YS02001649YS02001757        3.52      3.52      4.29      0.01         0.01
  YS02001767YS02001765        2.83      2.83      3.10      0.01         0.01
  YS02001629YS02163301        2.35      2.35      2.61      0.01         0.01
  YS02001622YS02001625        0.01      0.01      1.84      0.01         0.01
  YS02001625YS02001629        0.01      0.01      1.84      0.01         0.01
  YS02163301YS02001633        2.61      2.61      3.09      0.01         0.01
  YS02163601YS02164001        3.05      3.05      3.47      0.01         0.01
  YS02164001YS02001641        3.05      3.05      3.20      0.01         0.01
  YS02001641YS02001644        3.20      3.20      3.23      0.01         0.03
  YS02001647YS02001649        1.79      1.79      3.52      0.01         0.01
  YS02001633YS02163601        2.94      2.94      3.47      0.01         0.01
  YS02001644YS02001647        1.79      1.79      3.23      0.01         0.01
  YS02001751YS02001754        0.01      0.01      1.28      0.01         0.01
  YS02001754YS02001757        1.80      1.80      4.29      0.01         0.01
  YS02001652YS02001649        1.92      1.92      3.52      0.01         0.01
  YS02001655YS02001652        0.01      0.01      1.63      0.01         0.01
  YS02001793JiankangQianchi        0.01      0.01      2.56      0.01         0.01
  YS02001757CaochengTiaoxuchi        0.01      0.01      4.29      0.01         0.01
  
  
  ***************
  Pumping Summary
  ***************
  
  ---------------------------------------------------------------------------------------------------------
                                                  Min       Avg       Max     Total     Power    % Time Off
                        Percent   Number of      Flow      Flow      Flow    Volume     Usage    Pump Curve
  Pump                 Utilized   Start-Ups       LPS       LPS       LPS  10^6 ltr     Kw-hr    Low   High
  ---------------------------------------------------------------------------------------------------------
  CC-Pump-1                0.00           0      0.00      0.00      0.00     0.000      0.00    0.0    0.0
  CC-Pump-2                0.00           0      0.00      0.00      0.00     0.000      0.00    0.0    0.0
  JK-Pump-1               42.52           5      0.00    101.26    300.00     1.146     21.39    0.0    0.0
  JK-Pump-2               29.78           5      0.00    138.52    683.00     1.085     20.86    0.0   95.2
  XR-Pump-1               82.97           5      0.00     82.35     95.00     1.938     40.49    0.0    0.0
  XR-Pump-2               80.84           6      0.00     81.82     95.00     1.881     39.18    0.0    0.0
  XR-Pump-3               76.59           6      0.00     79.89     95.00     1.710     35.56    0.0    0.0
  XR-Pump-4               76.59           6      0.00     79.89     95.00     1.710     35.56    0.0    0.0
  
  
  ***************************
  Link Pollutant Load Summary
  ***************************
  
  ------------------------------------------------------------------------------------------
                                 COD            SS            TN            TP         NH4-N
  Link                            kg            kg            kg            kg            kg
  ------------------------------------------------------------------------------------------
  WS02003066WSF200           124.143       200.160         7.955         0.927         4.801
  WS02006287WS02006284        76.541       124.866         5.668         0.681         3.468
  WS02006284WS02006280        76.964       125.544         5.707         0.686         3.493
  WS02006280WS02006229        76.942       125.509         5.706         0.686         3.492
  WS02006229WS02006228       122.016       196.411         7.757         0.901         4.678
  WS02006256WS02006235        40.048        62.275         1.892         0.201         1.100
  WS02006253WS02006251         5.789         9.895         0.217         0.021         0.121
  WS02006252WS02006251         0.000         0.000         0.000         0.000         0.000
  WS02006251WS02006249         6.348        10.794         0.270         0.028         0.153
  WS02006249WS02006248         6.271        10.665         0.263         0.027         0.149
  WS02006248WS02006247         6.372        10.829         0.268         0.027         0.152
  WS02006247WS02006245         6.809        11.509         0.291         0.030         0.165
  WS02006245WS02006243         7.389        12.416         0.314         0.032         0.179
  WS02006243WS02006242         9.280        15.395         0.395         0.040         0.225
  WS02006242WS02006240        12.775        20.846         0.552         0.057         0.316
  WS02006240WS02006239        16.121        26.028         0.709         0.074         0.407
  WS02006239WS02006238        19.901        31.869         0.889         0.093         0.512
  WS02006238WS02006235        22.328        35.602         1.004         0.105         0.579
  WS02006235WS02006234        45.213        71.152         2.076         0.219         1.202
  WS02006234WS02006232        45.748        71.990         2.104         0.222         1.218
  WS02006232WS02006231        45.466        71.548         2.088         0.220         1.208
  WS02006231WS02006230        44.959        70.741         2.063         0.217         1.194
  WS02006230WS02006229        45.408        71.434         2.085         0.220         1.207
  WS02006228WS02006109       121.771       196.026         7.724         0.897         4.657
  WS02006116WS02004401       129.078       207.821         8.337         0.973         5.036
  WS02006115WS02006116       129.287       208.145         8.359         0.975         5.050
  WS02006113WS02006111       129.037       207.657         8.423         0.985         5.094
  WS02006112WS02006115       129.869       209.078         8.406         0.981         5.079
  WS02006111WS02006112       128.976       207.564         8.413         0.983         5.087
  WS02006110WS02006113       129.342       208.148         8.448         0.988         5.109
  WS02006109WS02006110       130.091       209.350         8.511         0.995         5.148
  WS02004411WS02004412       126.420       203.752         8.132         0.948         4.910
  WS02004401WS02004402       128.544       206.970         8.292         0.967         5.008
  WS02004413WS02003067       124.571       200.809         7.990         0.931         4.823
  WS02004412WS02004413       125.642       202.542         8.072         0.941         4.873
  WS02004410WS02004411       126.878       204.458         8.167         0.952         4.932
  WS02004409WS02004410       127.300       205.117         8.200         0.956         4.952
  WS02004407WS02004409       127.438       205.312         8.212         0.958         4.959
  WS02004406WS02004407       127.287       205.049         8.204         0.957         4.954
  WS02004405WS02004406       128.428       206.859         8.297         0.968         5.012
  WS02004404WS02004405       128.484       206.900         8.300         0.968         5.014
  WS02004403WS02004404       127.694       205.628         8.220         0.958         4.963
  WS02004402WS02004403       128.213       206.454         8.262         0.963         4.989
  WS02004139WS02001211      1316.201      2105.572       125.583        15.679        78.430
  WS02004138WS02004139      1313.656      2101.501       125.340        15.648        78.278
  WS02003067WS02003066       124.215       200.274         7.961         0.927         4.805
  WS02001213WS02003059      1362.344      2179.402       130.016        16.233        81.201
  WS02001212WS02001213      1363.106      2180.622       130.090        16.242        81.247
  WS02001211WS02001212      1366.095      2185.403       130.374        16.277        81.425
  WS02003072WS02003073      1589.609      2544.617       147.898        18.401        92.208
  WS02003069WS02003072      1594.776      2552.907       148.390        18.462        92.515
  WS02003060WS02003069      1596.651      2555.889       148.561        18.484        92.622
  WS02003059WS02003060      1360.648      2176.691       129.857        16.213        81.102
  HS02004901HS02004770         1.075         1.827         0.022         0.002         0.010
  HS02004876HS02004881         4.988         8.481         0.204         0.020         0.115
  HS02004870HS02004876         4.072         6.889         0.193         0.020         0.111
  HS02004842HS02004848         0.607         0.997         0.015         0.001         0.007
  HS02004837HS02004842         5.253         8.426         0.476         0.059         0.296
  HS02004830HS02004837        45.239        72.660         4.164         0.518         2.596
  HS02004824HS02004830        45.991        73.863         4.237         0.527         2.641
  HS02004817HS02004824        48.502        78.090         4.317         0.534         2.684
  HS02004770HS02004777         4.276         7.326         0.100         0.006         0.045
  HS02004799HS02004480        26.692        43.806         1.637         0.189         0.978
  HS02004792HS02004799        25.826        42.175         1.668         0.195         1.001
  HS02004788HS02004792        18.895        30.858         1.384         0.165         0.842
  HS02004785HS02004788         5.766         9.721         0.251         0.025         0.140
  HS02004777HS02004785         5.293         8.962         0.208         0.020         0.113
  HS02004480HS02004478        29.509        48.797         1.642         0.187         0.972
  HS02004479HS02004480         7.371        12.266         0.439         0.052         0.266
  HS02004862HS02004870         3.203         5.314         0.175         0.019         0.102
  HS02004848HS02004852         0.580         0.954         0.014         0.001         0.006
  HS02004856HS02004862         1.233         2.127         0.027         0.002         0.013
  HS02004852HS02004856         0.579         0.952         0.014         0.001         0.006
  HS02004802HS02004478        47.348        76.574         4.055         0.498         2.515
  HS02004478WS02006287        76.721       125.154         5.684         0.683         3.478
  HS02004817HS02004807        47.107        75.860         4.184         0.517         2.601
  HS02004807HS02004802        48.128        77.822         4.130         0.508         2.561
  YS02001759YS02001757        34.769        53.858         1.036         0.086         0.550
  YS02001762YS02001759        19.774        31.078         0.708         0.065         0.390
  YS02001765YS02001762        19.726        30.970         0.740         0.069         0.411
  YS02001770YS02001767        17.476        27.254         0.467         0.033         0.237
  YS02001774YS02001770         3.638         5.713         0.114         0.009         0.061
  YS02001779YS02001774         3.443         5.468         0.192         0.021         0.114
  YS02001649YS02001757        47.133        70.874         1.296         0.105         0.655
  YS02001767YS02001765        19.985        31.352         0.768         0.072         0.429
  YS02006561YS02001783        91.515       142.254         3.862         0.394         2.207
  YS02001783YS02001784        91.456       142.166         3.859         0.394         2.205
  YS02001784YS02001785        98.838       153.989         4.571         0.483         2.650
  YS02001788YS02001790        99.544       155.133         4.644         0.492         2.696
  YS02001790YS02001791       100.548       156.747         4.742         0.504         2.757
  YS02001791YS02001793       100.493       156.661         4.738         0.504         2.755
  YS02001910YS02001907        40.095        62.604         2.488         0.280         1.490
  YS02001786YS02001788        99.099       154.415         4.599         0.486         2.668
  YS02001915YS02001910        40.021        62.427         2.459         0.276         1.471
  YS02001918YS02001915        27.449        42.801         2.143         0.259         1.318
  YS02001923YS02001920         7.447        10.784         0.216         0.018         0.114
  YS02001926YS02001923         7.062        10.162         0.177         0.013         0.090
  YS02001929YS02001926         6.747         9.651         0.145         0.009         0.069
  YS02001920YS02001918        27.399        42.713         2.133         0.257         1.312
  YS02001629YS02163301         7.354        11.093         0.184         0.011         0.085
  YS02001619YS02001622         9.690        14.477         0.243         0.014         0.110
  YS02001622YS02001625         9.022        13.535         0.225         0.013         0.102
  YS02001625YS02001629         8.102        12.204         0.202         0.012         0.092
  YS02163301YS02001633         7.138        10.771         0.180         0.011         0.084
  YS02163601YS02164001        22.448        33.600         0.631         0.051         0.323
  YS02164001YS02001641        22.072        33.022         0.607         0.049         0.309
  YS02001641YS02001644        22.096        33.061         0.595         0.047         0.301
  YS02001647YS02001649        34.739        51.711         0.853         0.064         0.421
  YS02006553YS02006556        69.574       108.233         3.224         0.342         1.875
  YS02006556YS02006558        69.501       108.093         3.193         0.338         1.854
  YSB6556YSB1171               3.175         5.331         0.144         0.016         0.085
  YS02001907YS02006553        69.525       108.152         3.223         0.342         1.874
  YS02006558YS02006561        91.528       142.269         3.863         0.394         2.207
  YS02001633YS02163601        22.885        34.178         0.613         0.048         0.309
  YS02001644YS02001647        35.379        52.594         0.870         0.066         0.430
  YS02001745YS02001748        18.038        27.778         0.723         0.067         0.403
  YS02001748YS02001751        17.773        27.487         0.743         0.071         0.418
  YS02001751YS02001754        16.094        24.936         0.653         0.061         0.366
  YS02001754YS02001757        18.182        28.298         0.860         0.088         0.496
  YS02001882YS02001884         0.233         0.350         0.010         0.001         0.006
  YS02001884YS02001887         0.900         1.378         0.035         0.004         0.020
  YS02001890YS02001895        30.355        46.853         0.766         0.065         0.402
  YS02001895YS02001898        30.248        46.699         0.761         0.065         0.398
  YS02001898YS02001901        30.159        46.576         0.758         0.064         0.397
  YS02001901YS02001904        30.284        46.808         0.780         0.067         0.411
  YS02001904YS02001907        31.179        48.285         0.881         0.080         0.475
  YS02001887YS02001890        31.181        48.131         0.833         0.073         0.442
  YS02001652YS02001649        14.614        22.441         0.492         0.044         0.255
  YS02001655YS02001652        15.025        23.049         0.519         0.047         0.271
  YS02001658YS02001655        14.761        22.498         0.446         0.036         0.221
  YS02001661YS02001658        13.708        20.723         0.331         0.021         0.148
  YS02001664YS02001661        13.702        20.698         0.331         0.021         0.148
  YSB1154YSB6556               2.649         4.491         0.080         0.008         0.044
  YSB1174YSB1171               2.257         3.842         0.102         0.011         0.060
  YSB1171HS02004479            7.235        12.057         0.425         0.050         0.256
  HS02004881HS02006253         5.537         9.458         0.214         0.021         0.119
  YS02001793JiankangQianchi       101.103       157.640         4.795         0.511         2.790
  YS02001757CaochengTiaoxuchi        92.113       140.868         2.733         0.228         1.428
  WSF200WS02003060           123.962       199.915         7.941         0.925         4.793
  1                         1594.361      2552.346       148.378        18.461        92.509
  CC-Pump-1                    0.000         0.000         0.000         0.000         0.000
  CC-Pump-2                    0.000         0.000         0.000         0.000         0.000
  JK-Pump-1                   33.359        51.759         1.553         0.164         0.901
  JK-Pump-2                   34.873        54.735         1.685         0.181         0.984
  XR-Pump-1                  354.247       566.701        33.801         4.220        21.110
  XR-Pump-2                  342.825       548.431        32.711         4.084        20.429
  XR-Pump-3                  307.670       492.190        29.355         3.665        18.333
  XR-Pump-4                  307.670       492.190        29.355         3.665        18.333
  

  Analysis begun on:  Sat Jul 10 21:30:56 2021
  Analysis ended on:  Sat Jul 10 21:30:57 2021
  Total elapsed time: 00:00:01