
  EPA STORM WATER MANAGEMENT MODEL - VERSION 5.1 (Build 5.3.0.dev0)
  --------------------------------------------------------------

  WARNING 04: minimum elevation drop used for Conduit WS02004404WS02004405
  WARNING 03: negative offset ignored for Link YS02001904YS02001907
  
  *********************************************************
  NOTE: The summary statistics displayed in this report are
  based on results found at every computational time step,  
  not just on results from each reporting time step.
  *********************************************************
  
  ****************
  Analysis Options
  ****************
  Flow Units ............... LPS
  Process Models:
    Rainfall/Runoff ........ YES
    RDII ................... NO
    Snowmelt ............... NO
    Groundwater ............ NO
    Flow Routing ........... YES
    Ponding Allowed ........ NO
    Water Quality .......... YES
  Infiltration Method ...... HORTON
  Flow Routing Method ...... DYNWAVE
  Surcharge Method ......... EXTRAN
  Starting Date ............ 08/28/2015 08:00:00
  Ending Date .............. 08/28/2015 15:50:00
  Antecedent Dry Days ...... 8.0
  Report Time Step ......... 00:01:00
  Wet Time Step ............ 00:01:00
  Dry Time Step ............ 00:01:00
  Routing Time Step ........ 5.00 sec
  Variable Time Step ....... YES
  Maximum Trials ........... 8
  Number of Threads ........ 4
  Head Tolerance ........... 0.001500 m
  
  
  **************************        Volume         Depth
  Runoff Quantity Continuity     hectare-m            mm
  **************************     ---------       -------
  Total Precipitation ......         1.890         4.138
  Evaporation Loss .........         0.000         0.000
  Infiltration Loss ........         0.446         0.976
  Surface Runoff ...........         1.019         2.231
  Final Storage ............         0.426         0.933
  Continuity Error (%) .....        -0.023
  
  
  **************************           COD            SS            TN            TP         NH4-N
  Runoff Quality Continuity             kg            kg            kg            kg            kg
  **************************    ----------    ----------    ----------    ----------    ----------
  Initial Buildup ..........     41378.656     70582.865      1804.177       168.684      1032.807
  Surface Buildup ..........        13.488        15.104         3.115         0.289         1.848
  Wet Deposition ...........         0.000         0.000         0.000         0.000         0.000
  Sweeping Removal .........         0.000         0.000         0.000         0.000         0.000
  Infiltration Loss ........        16.587        27.903         0.343         0.023         0.160
  BMP Removal ..............         0.000         0.000         0.000         0.000         0.000
  Surface Runoff ...........       507.499       831.095        10.606         0.673         4.983
  Remaining Buildup ........     40867.899     69738.717      1796.340       168.276      1029.511
  Continuity Error (%) .....         0.000         0.000         0.000         0.000         0.000
  
  
  **************************        Volume        Volume
  Flow Routing Continuity        hectare-m      10^6 ltr
  **************************     ---------     ---------
  Dry Weather Inflow .......         0.616         6.165
  Wet Weather Inflow .......         1.018        10.184
  Groundwater Inflow .......         0.000         0.000
  RDII Inflow ..............         0.000         0.000
  External Inflow ..........         0.102         1.024
  External Outflow .........         1.320        13.204
  Flooding Loss ............         0.132         1.323
  Evaporation Loss .........         0.000         0.000
  Exfiltration Loss ........         0.000         0.000
  Initial Stored Volume ....         0.076         0.761
  Final Stored Volume ......         0.446         4.462
  Continuity Error (%) .....        -4.725
  
  
  **************************           COD            SS            TN            TP         NH4-N
  Quality Routing Continuity            kg            kg            kg            kg            kg
  **************************    ----------    ----------    ----------    ----------    ----------
  Dry Weather Inflow .......      1541.201      2465.922       147.955        18.494        92.472
  Wet Weather Inflow .......       507.305       830.804        10.601         0.673         4.980
  Groundwater Inflow .......         0.000         0.000         0.000         0.000         0.000
  RDII Inflow ..............         0.000         0.000         0.000         0.000         0.000
  External Inflow ..........       183.418       293.469        17.608         2.201        11.005
  External Outflow .........      1708.589      2751.875       145.189        17.832        89.921
  Flooding Loss ............        55.787        91.370         1.884         0.179         1.042
  Exfiltration Loss ........         0.000         0.000         0.000         0.000         0.000
  Mass Reacted .............         0.000         0.000         0.000         0.000         0.000
  Initial Stored Mass ......         0.000         0.000         0.000         0.000         0.000
  Final Stored Mass ........       339.089       540.446        20.619         2.364        12.357
  Continuity Error (%) .....         5.756         5.752         4.810         4.651         4.737
  
  
  *************************
  Highest Continuity Errors
  *************************
  Node YS02001774 (35.75%)
  Node HS02004842 (29.91%)
  Node YS02001884 (24.96%)
  Node JK-storage (-24.15%)
  Node WS02006253 (8.49%)
  
  
  ***************************
  Time-Step Critical Elements
  ***************************
  Link WS02006252WS02006251 (65.46%)
  Link WS02006280WS02006229 (8.67%)
  Link YS02001793JiankangQianchi (7.04%)
  Link WS02006238WS02006235 (5.33%)
  Link YS02001791YS02001793 (2.09%)
  
  
  ********************************
  Highest Flow Instability Indexes
  ********************************
  Link WS02006113WS02006111 (53)
  Link WS02006111WS02006112 (16)
  Link YS02001779YS02001774 (6)
  Link YS02001641YS02001644 (6)
  Link YS02001774YS02001770 (6)
  
  
  *************************
  Routing Time Step Summary
  *************************
  Minimum Time Step           :     0.49 sec
  Average Time Step           :     1.39 sec
  Maximum Time Step           :     5.00 sec
  Percent in Steady State     :    -0.00
  Average Iterations per Step :     2.43
  Percent Not Converging      :     3.19
  
  
  ***************************
  Subcatchment Runoff Summary
  ***************************
  
  ------------------------------------------------------------------------------------------------------------------------------
                            Total      Total      Total      Total     Imperv       Perv      Total       Total     Peak  Runoff
                           Precip      Runon       Evap      Infil     Runoff     Runoff     Runoff      Runoff   Runoff   Coeff
  Subcatchment                 mm         mm         mm         mm         mm         mm         mm    10^6 ltr      LPS
  ------------------------------------------------------------------------------------------------------------------------------
  sub0                       4.14       0.00       0.00       0.29       3.80       0.00       3.80        0.00     1.17   0.919
  sub1                       4.14       0.00       0.00       0.46       3.60       0.00       3.60        0.02     6.51   0.869
  sub2                       4.14       0.00       0.00       1.53       2.53       0.00       2.53        0.02     5.78   0.611
  sub3                       4.14       0.00       0.00       1.53       2.50       0.00       2.50        0.06    11.88   0.603
  sub4                       4.14       0.00       0.00       0.46       3.46       0.00       3.46        0.07    13.28   0.837
  sub5                       4.14       0.00       0.00       0.29       3.76       0.00       3.76        0.04    11.57   0.908
  sub7                       4.14       0.00       0.00       0.37       3.71       0.00       3.71        0.01     4.01   0.895
  sub8                       4.14       0.00       0.00       0.37       3.70       0.00       3.70        0.02     7.14   0.893
  sub9                       4.14       0.00       0.00       0.37       3.69       0.00       3.69        0.02     5.30   0.893
  sub10                      4.14       0.00       0.00       0.33       3.72       0.00       3.72        0.04    11.52   0.900
  sub11                      4.14       0.00       0.00       0.33       3.74       0.00       3.74        0.04    13.39   0.904
  sub12                      4.14       0.00       0.00       0.54       3.55       0.00       3.55        0.03    11.02   0.859
  sub14                      4.14       0.00       0.00       0.37       3.69       0.00       3.69        0.04    10.36   0.892
  sub15                      4.14       0.00       0.00       1.24       2.84       0.00       2.84        0.05    14.09   0.686
  sub16                      4.14       0.00       0.00       1.37       2.73       0.00       2.73        0.03     9.78   0.661
  sub17                      4.14       0.00       0.00       1.32       2.77       0.00       2.77        0.02     7.94   0.670
  sub22                      4.14       0.00       0.00       1.78       2.32       0.00       2.32        0.15    45.73   0.560
  sub23                      4.14       0.00       0.00       1.53       2.56       0.00       2.56        0.12    38.83   0.620
  sub60                      4.14       0.00       0.00       0.50       2.44       0.00       2.44        0.74    64.07   0.589
  sub61                      4.14       0.00       0.00       0.70       2.63       0.00       2.63        0.81    81.53   0.634
  sub62                      4.14       0.00       0.00       0.33       2.81       0.00       2.81        0.86    82.97   0.679
  sub63                      4.14       0.00       0.00       1.20       2.34       0.00       2.34        0.71    76.55   0.566
  sub64                      4.14       0.00       0.00       0.62       2.33       0.00       2.33        0.71    60.80   0.562
  sub65                      4.14       0.00       0.00       0.54       2.36       0.00       2.36        0.72    61.64   0.569
  sub66                      4.14       0.00       0.00       1.20       2.04       0.00       2.04        0.62    55.96   0.492
  sub67                      4.14       0.00       0.00       0.33       3.11       0.00       3.11        0.96   107.98   0.751
  sub68                      4.14       0.00       0.00       0.58       2.80       0.00       2.80        0.86    90.49   0.676
  sub69                      4.14       0.00       0.00       0.62       3.04       0.00       3.04        0.71    91.29   0.734
  sub70                      4.14       3.10       0.00       2.46       3.69       0.00       3.69        0.84    71.64   0.509
  sub71                      4.14       0.00       0.00       0.33       2.68       0.00       2.68        0.63    57.61   0.647
  sub72                      4.14       0.00       0.00       0.29       1.86       0.00       1.86        0.38    26.96   0.449
  1                          4.14       3.59       0.00       1.30       3.72       0.41       4.13        0.97    66.58   0.534
  2                          4.14       0.00       0.00       2.88       0.92       0.12       1.04        0.41    55.33   0.250
  
  
  ****************************
  Subcatchment Washoff Summary
  ****************************
  
  ------------------------------------------------------------------------------------------
                                 COD            SS            TN            TP         NH4-N
  Subcatchment                    kg            kg            kg            kg            kg
  ------------------------------------------------------------------------------------------
  sub0                         0.531         0.962         0.009         0.001         0.004
  sub1                         2.134         3.892         0.041         0.003         0.019
  sub2                         1.216         2.132         0.028         0.002         0.013
  sub3                         2.902         5.005         0.066         0.004         0.030
  sub4                         4.609         8.294         0.097         0.005         0.046
  sub5                         4.873         8.775         0.086         0.006         0.041
  sub7                         1.153         2.154         0.022         0.001         0.011
  sub8                         1.751         3.330         0.036         0.002         0.017
  sub9                         1.471         2.760         0.029         0.002         0.014
  sub10                        4.085         7.463         0.075         0.005         0.036
  sub11                        4.110         7.634         0.078         0.005         0.037
  sub12                        3.445         6.308         0.062         0.005         0.030
  sub14                        3.104         5.768         0.060         0.004         0.029
  sub15                        3.587         6.340         0.072         0.005         0.033
  sub16                        2.307         4.094         0.045         0.003         0.021
  sub17                        2.098         3.686         0.040         0.003         0.018
  sub22                       10.568        18.294         0.210         0.015         0.096
  sub23                        6.639        11.952         0.153         0.010         0.069
  sub60                       32.508        52.686         0.718         0.040         0.342
  sub61                       41.673        67.391         0.831         0.053         0.398
  sub62                       44.136        72.706         0.942         0.055         0.449
  sub63                       31.594        50.578         0.711         0.047         0.321
  sub64                       37.826        58.954         0.746         0.051         0.352
  sub65                       38.795        60.731         0.772         0.052         0.365
  sub66                       23.410        36.988         0.547         0.033         0.251
  sub67                       66.493       108.837         1.231         0.086         0.591
  sub68                       47.348        77.593         0.981         0.061         0.464
  sub69                       45.187        75.395         0.899         0.059         0.425
  sub70                       65.948       109.823         1.440         0.094         0.660
  sub71                       29.269        48.582         0.672         0.036         0.320
  sub72                       17.739        27.076         0.361         0.023         0.173
  1                           30.890        51.852         0.704         0.046         0.317
  2                            5.233         8.275         0.181         0.011         0.075
  ------------------------------------------------------------------------------------------
  System                     618.633      1016.313        12.945         0.826         6.068
  
  
  ******************
  Node Depth Summary
  ******************
  
  ---------------------------------------------------------------------------------
                                 Average  Maximum  Maximum  Time of Max    Reported
                                   Depth    Depth      HGL   Occurrence   Max Depth
  Node                 Type       Meters   Meters   Meters  days hr:min      Meters
  ---------------------------------------------------------------------------------
  WS02001211           JUNCTION     0.64     0.79     5.63     0  06:03        0.79
  WS02001212           JUNCTION     0.37     0.50     5.57     0  06:02        0.50
  WS02001213           JUNCTION     0.61     0.75     5.52     0  06:01        0.75
  WS02003069           JUNCTION     0.41     0.58     5.16     0  06:00        0.58
  WS02003072           JUNCTION     0.47     0.63     5.01     0  06:01        0.63
  WS02003073           JUNCTION     0.28     0.39     4.45     0  06:01        0.39
  WS02003060           JUNCTION     0.36     0.51     5.44     0  06:00        0.51
  WS02003066           JUNCTION     0.21     0.29     5.85     0  05:58        0.29
  WS02003059           JUNCTION     0.66     0.81     5.49     0  06:01        0.81
  WS02003067           JUNCTION     0.52     0.70     6.02     0  05:58        0.70
  WS02004401           JUNCTION     0.62     0.84     6.84     0  05:55        0.84
  WS02004402           JUNCTION     0.65     0.87     6.83     0  05:55        0.87
  WS02004403           JUNCTION     0.67     0.89     6.82     0  05:55        0.89
  WS02004404           JUNCTION     0.75     0.96     6.81     0  05:55        0.96
  WS02004406           JUNCTION     0.76     0.95     6.78     0  05:55        0.95
  WS02004409           JUNCTION     0.43     0.66     6.43     0  05:57        0.66
  WS02004410           JUNCTION     0.45     0.67     6.39     0  05:57        0.67
  WS02004411           JUNCTION     0.47     0.68     6.36     0  05:58        0.68
  WS02004412           JUNCTION     0.48     0.69     6.33     0  05:58        0.69
  WS02004413           JUNCTION     0.64     0.85     6.32     0  05:58        0.85
  WS02004405           JUNCTION     0.74     0.95     6.80     0  05:55        0.95
  WS02006109           JUNCTION     0.69     0.98     7.60     0  05:50        0.97
  WS02006110           JUNCTION     0.69     0.93     7.51     0  05:50        0.92
  WS02006111           JUNCTION     0.20     0.29     6.99     0  05:51        0.29
  WS02006112           JUNCTION     0.78     1.06     6.94     0  05:54        1.03
  WS02006113           JUNCTION     0.30     0.46     7.35     0  05:51        0.46
  WS02006115           JUNCTION     0.50     0.74     6.88     0  05:54        0.74
  WS02006116           JUNCTION     0.59     0.82     6.86     0  05:55        0.82
  WS02006230           JUNCTION     0.65     1.10     7.85     0  05:50        1.10
  WS02006231           JUNCTION     0.43     0.85     7.97     0  05:54        0.84
  WS02006232           JUNCTION     0.56     1.04     8.08     0  05:50        1.03
  WS02006234           JUNCTION     0.48     1.05     8.20     0  05:50        1.04
  WS02006235           JUNCTION     0.51     1.13     8.29     0  05:50        1.12
  WS02006238           JUNCTION     0.54     1.16     8.30     0  05:50        1.15
  WS02006240           JUNCTION     0.45     1.11     8.41     0  05:50        1.10
  WS02006242           JUNCTION     0.51     1.21     8.47     0  05:50        1.19
  WS02006243           JUNCTION     0.39     1.12     8.54     0  05:50        1.10
  WS02006245           JUNCTION     0.38     1.11     8.60     0  05:50        1.09
  WS02006247           JUNCTION     0.39     1.13     8.63     0  05:50        1.11
  WS02006248           JUNCTION     0.34     1.08     8.66     0  05:50        1.07
  WS02006249           JUNCTION     0.37     1.09     8.69     0  05:49        1.09
  WS02006239           JUNCTION     0.50     1.14     8.35     0  05:50        1.14
  WS02006251           JUNCTION     0.35     1.22     8.89     0  05:49        1.11
  WS02006252           JUNCTION     0.27     0.77     9.01     0  05:49        0.67
  WS02006253           JUNCTION     0.38     1.26     8.90     0  05:49        1.14
  WS02006256           JUNCTION     1.22     2.35     9.28     0  00:00        2.35
  WS02004138           JUNCTION     0.13     0.20     7.45     0  00:00        0.19
  WS02004139           JUNCTION     0.58     0.74     5.65     0  06:03        0.74
  WS02004407           JUNCTION     0.20     0.29     6.61     0  05:56        0.29
  WS02006228           JUNCTION     0.68     1.02     7.67     0  05:50        1.01
  WS02006229           JUNCTION     0.65     1.02     7.71     0  05:50        1.01
  WS02006280           JUNCTION     0.04     0.14     8.41     0  02:15        0.14
  WS02006284           JUNCTION     0.34     0.47     8.87     0  02:15        0.47
  WS02006287           JUNCTION     0.06     0.20     9.15     0  02:14        0.20
  WSF200               JUNCTION     0.19     0.30     5.53     0  05:58        0.30
  HS02004901           JUNCTION     0.10     0.22    10.04     0  02:12        0.22
  HS02004881           JUNCTION     0.00     0.02     9.05     0  02:14        0.02
  HS02004876           JUNCTION     0.03     0.10     9.13     0  02:13        0.10
  HS02004870           JUNCTION     0.01     0.04     9.32     0  02:14        0.04
  HS02004862           JUNCTION     0.01     0.04     9.43     0  02:15        0.04
  HS02004856           JUNCTION     0.07     0.10     9.53     0  02:15        0.10
  HS02004852           JUNCTION     0.00     0.02     9.54     0  02:16        0.02
  HS02004848           JUNCTION     0.00     0.02     9.63     0  02:13        0.02
  HS02004842           JUNCTION     0.33     0.36     9.63     0  02:13        0.36
  HS02004837           JUNCTION     0.02     0.05     9.63     0  02:13        0.05
  HS02004830           JUNCTION     0.03     0.06     9.53     0  02:14        0.06
  HS02004824           JUNCTION     0.02     0.04     9.44     0  02:17        0.04
  HS02004817           JUNCTION     0.42     0.51     9.36     0  02:15        0.51
  HS02004807           JUNCTION     0.10     0.19     9.36     0  02:15        0.19
  HS02004802           JUNCTION     0.14     0.23     9.35     0  02:15        0.23
  HS02004799           JUNCTION     0.08     0.24     9.45     0  02:13        0.24
  HS02004792           JUNCTION     0.02     0.09     9.61     0  02:12        0.09
  HS02004788           JUNCTION     0.01     0.07     9.97     0  02:13        0.07
  HS02004785           JUNCTION     0.02     0.12    10.03     0  02:13        0.12
  HS02004777           JUNCTION     0.12     0.24    10.04     0  02:13        0.24
  HS02004770           JUNCTION     0.09     0.21    10.04     0  02:12        0.21
  HS02004480           JUNCTION     0.05     0.18     9.43     0  02:13        0.18
  HS02004479           JUNCTION     0.09     0.22     9.43     0  02:13        0.22
  HS02004478           JUNCTION     0.04     0.12     9.34     0  02:14        0.12
  YS02001745           JUNCTION     0.36     0.56     8.08     0  05:12        0.55
  YS02001748           JUNCTION     0.73     1.00     8.08     0  05:11        0.99
  YS02001751           JUNCTION     0.91     1.20     8.08     0  05:12        1.19
  YS02001754           JUNCTION     1.15     1.50     8.10     0  05:12        1.48
  YS02001762           JUNCTION     1.35     1.72     8.12     0  05:13        1.70
  YS02001765           JUNCTION     1.30     1.67     8.12     0  05:13        1.64
  YS02001767           JUNCTION     1.27     1.64     8.13     0  05:13        1.61
  YS02001770           JUNCTION     1.26     1.64     8.13     0  05:13        1.60
  YS02001774           JUNCTION     1.33     1.72     8.14     0  05:13        1.68
  YS02001779           JUNCTION     1.08     1.46     8.15     0  05:13        1.41
  YS02001882           JUNCTION     0.24     0.42     7.13     0  02:46        0.42
  YS02001884           JUNCTION     0.33     0.52     7.13     0  02:46        0.52
  YS02001759           JUNCTION     1.38     1.76     8.12     0  05:13        1.74
  YS02001887           JUNCTION     0.41     0.60     7.13     0  02:46        0.60
  YS02001890           JUNCTION     0.44     0.63     7.13     0  02:46        0.63
  YS02001898           JUNCTION     0.21     0.38     7.12     0  02:47        0.38
  YS02001901           JUNCTION     0.33     0.51     7.12     0  02:47        0.51
  YS02001904           JUNCTION     0.31     0.48     7.11     0  02:48        0.48
  YS02001907           JUNCTION     0.64     0.83     7.12     0  02:47        0.83
  YS02001910           JUNCTION     0.42     0.61     7.12     0  02:47        0.61
  YS02001915           JUNCTION     0.23     0.40     7.11     0  02:47        0.40
  YS02001918           JUNCTION     0.07     0.09     7.16     0  03:03        0.09
  YS02001619           JUNCTION     0.87     1.49     8.42     0  05:13        1.48
  YS02001629           JUNCTION     1.21     1.83     8.38     0  05:13        1.82
  YS02001641           JUNCTION     1.32     1.84     8.28     0  05:13        1.83
  YS02001644           JUNCTION     1.32     1.81     8.24     0  05:13        1.80
  YS02001652           JUNCTION     1.17     1.53     8.12     0  05:13        1.52
  YS02001655           JUNCTION     0.93     1.27     8.12     0  05:12        1.25
  YS02001920           JUNCTION     0.16     0.19     7.20     0  03:02        0.19
  YS02001923           JUNCTION     0.06     0.08     7.34     0  03:01        0.08
  YS02001926           JUNCTION     0.13     0.16     7.61     0  03:01        0.16
  YS02001929           JUNCTION     0.06     0.08     7.77     0  03:01        0.08
  YS02001658           JUNCTION     0.67     0.96     8.11     0  05:08        0.96
  YS02001661           JUNCTION     0.46     0.68     8.09     0  05:10        0.68
  YS02001664           JUNCTION     0.08     0.20     8.13     0  05:09        0.19
  YS02001622           JUNCTION     0.89     1.51     8.41     0  05:13        1.50
  YS02001633           JUNCTION     1.30     1.89     8.35     0  05:13        1.89
  YS02001649           JUNCTION     1.36     1.76     8.15     0  05:13        1.74
  YS02001757           JUNCTION     1.48     1.85     8.12     0  05:13        1.85
  YS02001895           JUNCTION     0.20     0.38     7.13     0  02:47        0.38
  YS02001625           JUNCTION     1.17     1.78     8.38     0  05:13        1.78
  YS02163301           JUNCTION     1.24     1.85     8.37     0  05:13        1.84
  YS02163601           JUNCTION     1.36     1.92     8.32     0  05:13        1.92
  YS02164001           JUNCTION     1.30     1.84     8.30     0  05:13        1.84
  YS02001647           JUNCTION     1.15     1.59     8.20     0  05:13        1.57
  YSB1154              JUNCTION     0.22     0.37     9.43     0  02:13        0.37
  YSB6556              JUNCTION     0.12     0.26     9.43     0  02:13        0.26
  YSB1174              JUNCTION     0.18     0.32     9.43     0  02:13        0.32
  YSB1171              JUNCTION     0.38     0.52     9.43     0  02:13        0.52
  YS02006553           JUNCTION     0.64     0.83     7.11     0  02:47        0.83
  YS02006561           JUNCTION     0.11     0.21     6.87     0  02:48        0.21
  YS02006556           JUNCTION     0.61     0.80     7.11     0  02:48        0.80
  YS02006558           JUNCTION     0.66     0.84     7.11     0  02:48        0.84
  YS02001783           JUNCTION     0.19     0.37     6.51     0  02:48        0.37
  YS02001784           JUNCTION     0.23     0.40     6.46     0  02:47        0.40
  YS02001786           JUNCTION     0.19     0.34     6.37     0  02:48        0.34
  YS02001788           JUNCTION     0.14     0.25     6.23     0  02:48        0.25
  YS02001790           JUNCTION     0.17     0.31     5.95     0  02:49        0.31
  YS02001791           JUNCTION     0.11     0.20     5.67     0  02:49        0.20
  YS02001793           JUNCTION     0.07     0.80     5.64     0  03:55        0.79
  WSC                  OUTFALL      0.28     0.39     1.06     0  06:02        0.39
  JK-storage           STORAGE      1.38     4.81     5.61     0  03:55        4.81
  CC-storage           STORAGE      0.78     1.06     8.06     0  05:09        1.06
  XR-storage           STORAGE      2.15     5.33     3.33     0  07:50        5.33
  
  
  *******************
  Node Inflow Summary
  *******************
  
  -------------------------------------------------------------------------------------------------
                                  Maximum  Maximum                  Lateral       Total        Flow
                                  Lateral    Total  Time of Max      Inflow      Inflow     Balance
                                   Inflow   Inflow   Occurrence      Volume      Volume       Error
  Node                 Type           LPS      LPS  days hr:min    10^6 ltr    10^6 ltr     Percent
  -------------------------------------------------------------------------------------------------
  WS02001211           JUNCTION      7.35   389.06     0  06:08       0.207        7.32       0.202
  WS02001212           JUNCTION      0.00   390.64     0  06:18           0        7.31       0.230
  WS02001213           JUNCTION      0.00   392.23     0  06:19           0         7.3       0.191
  WS02003069           JUNCTION      0.32   921.41     0  06:00     0.00902        13.2       0.186
  WS02003072           JUNCTION      0.00   921.33     0  06:01           0        13.2       0.239
  WS02003073           JUNCTION      1.82   923.22     0  06:01      0.0514        13.2       0.259
  WS02003060           JUNCTION     16.53   921.12     0  06:00       0.466        13.3       0.181
  WS02003066           JUNCTION      0.00   523.14     0  05:58           0        5.56       0.102
  WS02003059           JUNCTION      0.00   394.94     0  06:18           0        7.29       0.387
  WS02003067           JUNCTION      0.00   522.94     0  05:58           0        5.57       0.201
  WS02004401           JUNCTION      0.00   533.49     0  05:55           0        5.86       0.456
  WS02004402           JUNCTION      0.00   532.13     0  05:55           0        5.83       0.421
  WS02004403           JUNCTION      0.00   531.32     0  05:55           0         5.8       0.375
  WS02004404           JUNCTION      0.16   531.25     0  05:55     0.00457        5.79       0.271
  WS02004406           JUNCTION      0.00   530.89     0  05:55           0        5.75       0.663
  WS02004409           JUNCTION      0.00   530.40     0  05:56           0         5.7       0.396
  WS02004410           JUNCTION      0.00   527.60     0  05:56           0        5.68       0.434
  WS02004411           JUNCTION      0.00   525.85     0  05:56           0        5.65       0.434
  WS02004412           JUNCTION      0.00   524.48     0  05:57           0        5.63       0.454
  WS02004413           JUNCTION      0.00   523.20     0  05:57           0         5.6       0.647
  WS02004405           JUNCTION      0.04   531.20     0  05:55     0.00107        5.77       0.408
  WS02006109           JUNCTION      1.23   539.69     0  05:51      0.0347        5.98       0.352
  WS02006110           JUNCTION      0.00   539.57     0  05:51           0        5.96       0.395
  WS02006111           JUNCTION      0.00   560.75     0  05:51           0        5.92       0.100
  WS02006112           JUNCTION      7.94   542.00     0  05:51      0.0238        5.94       0.547
  WS02006113           JUNCTION      0.00   541.43     0  05:51           0        5.94       0.233
  WS02006115           JUNCTION      0.00   544.16     0  05:54           0        5.91       0.466
  WS02006116           JUNCTION      0.00   536.09     0  05:54           0        5.88       0.440
  WS02006230           JUNCTION     10.28   525.80     0  05:50        0.29        5.16       0.350
  WS02006231           JUNCTION      0.00   516.47     0  05:50           0        4.89       0.338
  WS02006232           JUNCTION      0.00   516.04     0  05:50           0        4.91       0.383
  WS02006234           JUNCTION      0.00   516.43     0  05:50           0        4.92       0.230
  WS02006235           JUNCTION      0.00   516.46     0  05:50           0        5.03       0.257
  WS02006238           JUNCTION      0.00   385.94     0  07:44           0        2.68       0.360
  WS02006240           JUNCTION      0.00   387.05     0  07:44           0        2.61       0.682
  WS02006242           JUNCTION      0.00   387.30     0  07:44           0        2.59       0.752
  WS02006243           JUNCTION      0.00   387.37     0  07:44           0        2.57       0.493
  WS02006245           JUNCTION      0.00   387.55     0  07:44           0        2.57       0.588
  WS02006247           JUNCTION      0.00   387.67     0  07:44           0        2.58       0.448
  WS02006248           JUNCTION      0.00   387.95     0  07:44           0        2.59       0.353
  WS02006249           JUNCTION      0.00   419.18     0  05:49           0        2.62       0.646
  WS02006239           JUNCTION      0.00   386.33     0  07:44           0        2.64       0.341
  WS02006251           JUNCTION      0.08   408.09     0  05:49     0.00217        2.68       0.696
  WS02006252           JUNCTION      0.00   400.00     0  07:40           0        2.52       0.018
  WS02006253           JUNCTION      1.17    61.94     0  07:40     0.00308       0.176       9.277
  WS02006256           JUNCTION      0.00   983.00     0  00:00           0        3.75      -0.013
  WS02004138           JUNCTION      0.00   380.00     0  00:00           0        7.13       0.026
  WS02004139           JUNCTION      0.32   396.51     0  00:00     0.00905        7.14       0.303
  WS02004407           JUNCTION      0.00   530.78     0  05:56           0        5.71       0.177
  WS02006228           JUNCTION      0.00   538.89     0  05:51           0        5.96       0.300
  WS02006229           JUNCTION      0.00   537.37     0  05:50           0        5.98       0.263
  WS02006280           JUNCTION      0.00   184.76     0  02:15           0       0.838       0.009
  WS02006284           JUNCTION      0.10   184.75     0  02:14      0.0027       0.839       0.135
  WS02006287           JUNCTION      0.00   184.66     0  02:14           0       0.837       0.085
  WSF200               JUNCTION      0.00   523.22     0  05:58           0        5.55       0.107
  HS02004901           JUNCTION      9.78     9.78     0  02:07      0.0286      0.0288       6.506
  HS02004881           JUNCTION      4.01    34.77     0  02:14      0.0125        0.13       0.057
  HS02004876           JUNCTION      6.51    31.03     0  02:14      0.0239       0.118       0.442
  HS02004870           JUNCTION      7.14    24.69     0  02:14      0.0236      0.0947       0.113
  HS02004862           JUNCTION      5.98    18.05     0  02:14      0.0292      0.0712       0.236
  HS02004856           JUNCTION      5.30    12.14     0  02:14      0.0178      0.0435       3.422
  HS02004852           JUNCTION      0.00     7.20     0  02:14           0      0.0257       0.191
  HS02004848           JUNCTION     11.88    11.88     0  02:16      0.0562      0.0562       0.078
  HS02004842           JUNCTION      0.00     5.04     0  02:24           0      0.0435      42.665
  HS02004837           JUNCTION     17.87    22.30     0  02:13        0.22       0.251       0.326
  HS02004830           JUNCTION      0.15    22.43     0  02:13     0.00423       0.241       0.513
  HS02004824           JUNCTION     13.33    35.63     0  02:16      0.0737       0.313       0.172
  HS02004817           JUNCTION      0.60    36.22     0  02:17      0.0169        0.33       5.320
  HS02004807           JUNCTION     13.39    48.49     0  02:15      0.0435       0.357       1.199
  HS02004802           JUNCTION      0.00    48.67     0  02:16           0       0.352       1.168
  HS02004799           JUNCTION     10.36   115.97     0  02:12      0.0351        0.43       0.545
  HS02004792           JUNCTION     46.01   105.83     0  02:12       0.154       0.395       0.106
  HS02004788           JUNCTION     15.76    61.56     0  02:13      0.0959       0.242       0.163
  HS02004785           JUNCTION      0.15    46.24     0  02:12     0.00423       0.148       0.325
  HS02004777           JUNCTION      0.03    46.62     0  02:10    0.000846       0.148       3.613
  HS02004770           JUNCTION     38.83    47.69     0  02:09       0.122       0.149       2.119
  HS02004480           JUNCTION      0.00   136.74     0  02:12           0       0.501       0.141
  HS02004479           JUNCTION      0.00    21.24     0  02:15           0      0.0829       0.888
  HS02004478           JUNCTION      0.00   184.66     0  02:14           0       0.838       0.071
  YS02001745           JUNCTION     64.07    67.34     0  03:46       0.738       0.739       0.314
  YS02001748           JUNCTION      0.04   101.40     0  03:47     0.00127       0.738       1.811
  YS02001751           JUNCTION      0.01   123.36     0  03:01     0.00031       0.725       2.893
  YS02001754           JUNCTION      0.26    74.35     0  02:37     0.00733       0.711       3.543
  YS02001762           JUNCTION      0.00    97.20     0  03:01           0       0.788       2.826
  YS02001765           JUNCTION      0.00    94.79     0  02:43           0       0.791       3.215
  YS02001767           JUNCTION      0.54   117.52     0  03:05      0.0151       0.813       4.613
  YS02001770           JUNCTION     83.12   118.45     0  03:04       0.867       0.884       3.793
  YS02001774           JUNCTION      0.00    45.30     0  03:04           0      0.0721      55.653
  YS02001779           JUNCTION      0.01    44.03     0  03:04    0.000141      0.0297     103.580
  YS02001882           JUNCTION      0.00     3.28     0  02:04           0     0.00471      52.172
  YS02001884           JUNCTION      0.00     9.70     0  02:07           0       0.019      33.259
  YS02001759           JUNCTION     81.57   175.28     0  03:01        0.81        1.56       1.512
  YS02001887           JUNCTION    108.43   108.43     0  02:36       0.971       0.981       0.720
  YS02001890           JUNCTION      0.00   107.53     0  02:39           0       0.958       0.809
  YS02001898           JUNCTION      0.00   107.04     0  02:42           0       0.947       0.219
  YS02001901           JUNCTION      0.00   106.87     0  02:42           0       0.946       0.573
  YS02001904           JUNCTION      0.00   106.63     0  02:44           0       0.945       0.532
  YS02001907           JUNCTION      0.00   192.61     0  02:49           0        2.02       1.093
  YS02001910           JUNCTION      0.00    87.24     0  02:59           0        1.08       0.928
  YS02001915           JUNCTION     57.63    86.83     0  02:57       0.633        1.09       0.404
  YS02001918           JUNCTION      0.00    29.86     0  03:02           0       0.457       0.232
  YS02001619           JUNCTION     55.96    55.96     0  02:51       0.624       0.624       1.662
  YS02001629           JUNCTION      0.00    86.16     0  03:08           0        0.55       4.820
  YS02001641           JUNCTION      0.00   117.91     0  03:03           0        1.18       1.820
  YS02001644           JUNCTION     60.83   177.27     0  03:03       0.708        1.86       1.430
  YS02001652           JUNCTION      0.00    85.60     0  02:41           0       0.674       3.555
  YS02001655           JUNCTION      0.15   119.47     0  02:59     0.00434       0.696       3.226
  YS02001920           JUNCTION      2.87    29.87     0  03:02      0.0809       0.459       0.428
  YS02001923           JUNCTION      0.04    27.00     0  03:01     0.00106       0.379       0.075
  YS02001926           JUNCTION      0.05    27.00     0  03:01     0.00147        0.38       0.536
  YS02001929           JUNCTION     26.96    26.96     0  03:01       0.378       0.378       0.072
  YS02001658           JUNCTION      0.00    83.13     0  05:11           0       0.711       1.895
  YS02001661           JUNCTION      0.00   104.78     0  05:09           0       0.746       0.610
  YS02001664           JUNCTION     76.55    76.55     0  02:38       0.709       0.739       0.041
  YS02001622           JUNCTION      0.00    77.28     0  03:06           0       0.614       4.656
  YS02001633           JUNCTION     61.84   120.83     0  03:04       0.729        1.24       2.659
  YS02001649           JUNCTION      0.00   261.02     0  03:03           0        2.44       1.573
  YS02001757           JUNCTION      0.00   443.86     0  02:52           0         4.6       2.065
  YS02001895           JUNCTION      0.00   107.26     0  02:40           0        0.95       0.378
  YS02001625           JUNCTION      0.00    72.80     0  03:08           0       0.587       7.104
  YS02163301           JUNCTION      0.00    66.74     0  03:08           0       0.532       4.766
  YS02163601           JUNCTION      0.11   122.38     0  03:05      0.0031         1.2       2.589
  YS02164001           JUNCTION      0.00   119.66     0  03:05           0        1.18       1.740
  YS02001647           JUNCTION      0.00   174.30     0  03:05           0        1.82       1.586
  YSB1154              JUNCTION     11.57    11.57     0  02:11      0.0426      0.0438       3.410
  YSB6556              JUNCTION      0.00    11.52     0  02:13           0      0.0447       2.860
  YSB1174              JUNCTION     11.02    11.02     0  02:07       0.031      0.0319       4.196
  YSB1171              JUNCTION      0.00    21.25     0  02:12           0      0.0821       8.336
  YS02006553           JUNCTION      0.00   192.69     0  02:50           0        2.01       0.709
  YS02006561           JUNCTION      0.00   283.06     0  02:48           0        2.84       0.022
  YS02006556           JUNCTION      0.00   192.75     0  02:51           0        2.01       0.511
  YS02006558           JUNCTION     91.37   283.06     0  02:48       0.885        2.87       0.156
  YS02001783           JUNCTION      0.00   283.06     0  02:48           0        2.84       0.051
  YS02001784           JUNCTION      1.06   284.12     0  02:48      0.0299        2.87       0.084
  YS02001786           JUNCTION      0.06   284.17     0  02:48     0.00159        2.87       0.082
  YS02001788           JUNCTION      0.07   284.24     0  02:48       0.002        2.87       0.047
  YS02001790           JUNCTION      0.15   284.40     0  02:48     0.00437        2.87       0.059
  YS02001791           JUNCTION      0.00   284.39     0  02:49           0        2.87       0.028
  YS02001793           JUNCTION      0.00   530.23     0  03:04           0        2.88       0.031
  WSC                  OUTFALL       0.00   923.42     0  06:02           0        13.2       0.000
  JK-storage           STORAGE       0.00   901.29     0  03:05           0        3.03     -19.449
  CC-storage           STORAGE       0.00   442.43     0  02:52           0         4.5       0.953
  XR-storage           STORAGE     314.15   314.15     0  02:49        7.02        7.62      -1.832
  
  
  **********************
  Node Surcharge Summary
  **********************
  
  Surcharging occurs when water rises above the top of the highest conduit.
  ---------------------------------------------------------------------
                                               Max. Height   Min. Depth
                                   Hours       Above Crown    Below Rim
  Node                 Type      Surcharged         Meters       Meters
  ---------------------------------------------------------------------
  WS02006109           JUNCTION        1.37          0.157        1.663
  WS02006110           JUNCTION        0.09          0.016        1.834
  WS02006112           JUNCTION        0.21          0.058        1.622
  WS02006230           JUNCTION        0.07          0.021        1.549
  WS02006231           JUNCTION        0.32          0.141        1.389
  WS02006232           JUNCTION        1.29          0.337        1.143
  WS02006234           JUNCTION        0.83          0.328        0.912
  WS02006235           JUNCTION        1.12          0.420        0.870
  WS02006238           JUNCTION        1.24          0.441        0.989
  WS02006240           JUNCTION        0.73          0.404        0.986
  WS02006242           JUNCTION        0.89          0.476        0.344
  WS02006243           JUNCTION        0.59          0.410        0.360
  WS02006245           JUNCTION        0.55          0.402        0.448
  WS02006247           JUNCTION        0.56          0.417        0.343
  WS02006248           JUNCTION        0.48          0.358        0.022
  WS02006249           JUNCTION        0.52          0.390        0.000
  WS02006239           JUNCTION        0.89          0.405        0.885
  WS02006251           JUNCTION        0.19          0.188        0.992
  WS02006252           JUNCTION        1.06          0.371        0.729
  WS02006253           JUNCTION        0.20          0.219        2.261
  WS02006256           JUNCTION        6.17          2.050        0.000
  WS02006228           JUNCTION        1.28          0.188        2.012
  YS02001751           JUNCTION        2.90          0.204        0.996
  YS02001754           JUNCTION        4.22          0.445        0.705
  YS02001762           JUNCTION        4.97          0.719        0.431
  YS02001765           JUNCTION        4.80          0.674        0.426
  YS02001767           JUNCTION        4.70          0.639        0.391
  YS02001770           JUNCTION        4.59          0.610        0.310
  YS02001774           JUNCTION        4.90          0.722        0.328
  YS02001779           JUNCTION        4.10          0.461        0.219
  YS02001759           JUNCTION        5.09          0.756        0.454
  YS02001619           JUNCTION        2.45          0.490        0.120
  YS02001629           JUNCTION        2.45          0.450        0.020
  YS02001641           JUNCTION        4.87          0.839        0.261
  YS02001644           JUNCTION        4.88          0.808        0.112
  YS02001652           JUNCTION        4.31          0.498        0.632
  YS02001655           JUNCTION        3.14          0.267        0.933
  YS02001622           JUNCTION        2.64          0.506        0.114
  YS02001633           JUNCTION        4.75          0.874        0.186
  YS02001649           JUNCTION        5.01          0.756        0.294
  YS02001757           JUNCTION        5.33          0.855        0.355
  YS02001625           JUNCTION        4.37          0.780        0.000
  YS02163301           JUNCTION        4.63          0.849        0.181
  YS02163601           JUNCTION        5.00          0.922        0.158
  YS02164001           JUNCTION        4.80          0.842        0.258
  YS02001647           JUNCTION        4.35          0.585        0.315
  
  
  *********************
  Node Flooding Summary
  *********************
  
  Flooding refers to all water that overflows a node, whether it ponds or not.
  --------------------------------------------------------------------------
                                                             Total   Maximum
                                 Maximum   Time of Max       Flood    Ponded
                        Hours       Rate    Occurrence      Volume     Depth
  Node                 Flooded       LPS   days hr:min    10^6 ltr    Meters
  --------------------------------------------------------------------------
  WS02006249              0.17     78.15      0  05:49       0.013     0.000
  WS02006256              1.84    978.40      0  00:00       1.309     0.000
  YS02001625              0.01      3.02      0  05:13       0.000     0.000
  
  
  **********************
  Storage Volume Summary
  **********************
  
  --------------------------------------------------------------------------------------------------
                         Average     Avg  Evap Exfil       Maximum     Max    Time of Max    Maximum
                          Volume    Pcnt  Pcnt  Pcnt        Volume    Pcnt     Occurrence    Outflow
  Storage Unit           1000 m3    Full  Loss  Loss       1000 m3    Full    days hr:min        LPS
  --------------------------------------------------------------------------------------------------
  JK-storage               0.069      24     0     0         0.242      83       0  03:55     983.00
  CC-storage               2.171      14     0     0         2.960      19       0  05:09     400.00
  XR-storage               0.258      28     0     0         0.639      69       0  07:50     380.00
  
  
  ***********************
  Outfall Loading Summary
  ***********************
  
  ---------------------------------------------------------------------------------------------------------------------------------
                         Flow       Avg       Max       Total         Total         Total         Total         Total         Total
                         Freq      Flow      Flow      Volume           COD            SS            TN            TP         NH4-N
  Outfall Node           Pcnt       LPS       LPS    10^6 ltr            kg            kg            kg            kg            kg
  ---------------------------------------------------------------------------------------------------------------------------------
  WSC                   99.98    520.55    923.42      13.204      1708.666      2751.997       145.196        17.833        89.926
  ---------------------------------------------------------------------------------------------------------------------------------
  System                99.98    520.55    923.42      13.204      1708.666      2751.997       145.196        17.833        89.926
  
  
  ********************
  Link Flow Summary
  ********************
  
  -----------------------------------------------------------------------------
                                 Maximum  Time of Max   Maximum    Max/    Max/
                                  |Flow|   Occurrence   |Veloc|    Full    Full
  Link                 Type          LPS  days hr:min     m/sec    Flow   Depth
  -----------------------------------------------------------------------------
  WS02003066WSF200     CONDUIT    523.22     0  05:58      2.78    0.09    0.22
  WS02006287WS02006284 CONDUIT    184.65     0  02:14      1.56    0.09    0.21
  WS02006284WS02006280 CONDUIT    184.76     0  02:15      1.80    0.08    0.19
  WS02006280WS02006229 CONDUIT    184.76     0  02:15      2.90    0.04    0.14
  WS02006229WS02006228 CONDUIT    538.89     0  05:51      1.07    1.78    1.00
  WS02006256WS02006235 CONDUIT    288.60     0  00:00      4.23    3.05    1.00
  WS02006253WS02006251 CONDUIT     61.55     0  07:40      0.47    0.18    1.00
  WS02006252WS02006251 CONDUIT    401.44     0  05:50      3.19    1.47    1.00
  WS02006251WS02006249 CONDUIT    419.18     0  05:49      1.10    1.21    1.00
  WS02006249WS02006248 CONDUIT    387.95     0  07:44      1.14    2.13    1.00
  WS02006248WS02006247 CONDUIT    387.67     0  07:44      1.11    0.84    1.00
  WS02006247WS02006245 CONDUIT    387.55     0  07:44      1.08    3.07    1.00
  WS02006245WS02006243 CONDUIT    387.37     0  07:44      1.09    1.15    1.00
  WS02006243WS02006242 CONDUIT    387.30     0  07:44      1.01    0.83    1.00
  WS02006242WS02006240 CONDUIT    387.05     0  07:44      1.01    1.54    1.00
  WS02006240WS02006239 CONDUIT    386.33     0  07:44      1.00    1.22    1.00
  WS02006239WS02006238 CONDUIT    385.94     0  07:44      1.00    1.23    1.00
  WS02006238WS02006235 CONDUIT    384.76     0  07:44      1.46    0.86    1.00
  WS02006235WS02006234 CONDUIT    516.43     0  05:50      1.34    5.45    1.00
  WS02006234WS02006232 CONDUIT    516.04     0  05:50      1.39    1.04    1.00
  WS02006232WS02006231 CONDUIT    516.47     0  05:50      1.34    1.08    1.00
  WS02006231WS02006230 CONDUIT    515.52     0  05:50      1.34    7.82    1.00
  WS02006230WS02006229 CONDUIT    525.61     0  05:50      1.37   11.70    1.00
  WS02006228WS02006109 CONDUIT    538.46     0  05:51      1.07    2.35    1.00
  WS02006116WS02004401 CONDUIT    533.49     0  05:55      0.77    0.74    0.83
  WS02006115WS02006116 CONDUIT    536.09     0  05:54      0.87    0.69    0.75
  WS02006113WS02006111 CONDUIT    560.75     0  05:51      2.46    0.67    0.46
  WS02006112WS02006115 CONDUIT    544.16     0  05:54      0.76    0.32    0.87
  WS02006111WS02006112 CONDUIT    541.97     0  05:51      1.51    0.26    0.67
  WS02006110WS02006113 CONDUIT    541.43     0  05:51      1.28    0.49    0.79
  WS02006109WS02006110 CONDUIT    539.57     0  05:51      1.07    1.04    1.00
  WS02004411WS02004412 CONDUIT    524.48     0  05:57      0.91    0.75    0.69
  WS02004401WS02004402 CONDUIT    532.13     0  05:55      0.74    0.64    0.86
  WS02004413WS02003067 CONDUIT    522.94     0  05:58      1.09    0.22    0.59
  WS02004412WS02004413 CONDUIT    523.20     0  05:57      0.81    0.35    0.77
  WS02004410WS02004411 CONDUIT    525.85     0  05:56      0.93    0.72    0.68
  WS02004409WS02004410 CONDUIT    527.60     0  05:56      0.96    0.68    0.66
  WS02004407WS02004409 CONDUIT    530.40     0  05:56      1.45    0.19    0.47
  WS02004406WS02004407 CONDUIT    530.78     0  05:56      1.03    0.24    0.62
  WS02004405WS02004406 CONDUIT    530.89     0  05:55      0.69    1.05    0.95
  WS02004404WS02004405 CONDUIT    531.16     0  05:55      0.69    5.20    0.96
  WS02004403WS02004404 CONDUIT    531.09     0  05:55      0.70    0.38    0.92
  WS02004402WS02004403 CONDUIT    531.32     0  05:55      0.73    0.76    0.88
  WS02004139WS02001211 CONDUIT    381.72     0  06:08      0.90    0.48    0.60
  WS02004138WS02004139 CONDUIT    396.19     0  00:00      3.65    0.08    0.44
  WS02003067WS02003066 CONDUIT    523.14     0  05:58      1.19    0.17    0.41
  WS02001213WS02003059 CONDUIT    394.94     0  06:18      0.88    0.65    0.77
  WS02001212WS02001213 CONDUIT    392.23     0  06:19      1.32    0.61    0.47
  WS02001211WS02001212 CONDUIT    390.64     0  06:18      0.78    0.30    0.65
  WS02003072WS02003073 CONDUIT    921.40     0  06:01      1.71    1.99    0.48
  WS02003069WS02003072 CONDUIT    921.33     0  06:01      1.61    0.44    0.50
  WS02003060WS02003069 CONDUIT    921.09     0  06:00      1.86    0.36    0.45
  WS02003059WS02003060 CONDUIT    398.77     0  06:19      0.95    0.26    0.66
  HS02004901HS02004770 CONDUIT      9.07     0  02:11      0.04    0.03    0.31
  HS02004876HS02004881 CONDUIT     31.09     0  02:14      0.52    0.33    0.09
  HS02004870HS02004876 CONDUIT     24.67     0  02:14      0.37    0.02    0.10
  HS02004842HS02004848 CONDUIT      5.04     0  02:24      0.03    0.00    0.27
  HS02004837HS02004842 CONDUIT      5.22     0  02:25      0.42    0.00    0.29
  HS02004830HS02004837 CONDUIT     22.28     0  02:13      0.43    0.02    0.07
  HS02004824HS02004830 CONDUIT     22.43     0  02:14      0.47    0.03    0.07
  HS02004817HS02004824 CONDUIT     35.62     0  02:17      0.17    0.02    0.39
  HS02004770HS02004777 CONDUIT     46.59     0  02:10      0.21    0.09    0.32
  HS02004799HS02004480 CONDUIT    115.79     0  02:12      0.56    0.15    0.30
  HS02004792HS02004799 CONDUIT    105.77     0  02:12      0.64    0.06    0.23
  HS02004788HS02004792 CONDUIT     61.50     0  02:13      0.80    0.04    0.11
  HS02004785HS02004788 CONDUIT     46.10     0  02:13      0.48    0.35    0.14
  HS02004777HS02004785 CONDUIT     46.09     0  02:12      0.25    0.06    0.26
  HS02004480HS02004478 CONDUIT    136.72     0  02:13      0.92    0.58    0.21
  HS02004479HS02004480 CONDUIT     21.44     0  02:15      0.16    0.02    0.29
  HS02004862HS02004870 CONDUIT     18.01     0  02:15      0.45    0.02    0.06
  HS02004848HS02004852 CONDUIT      7.20     0  02:14      0.30    0.01    0.03
  HS02004856HS02004862 CONDUIT     12.11     0  02:15      0.33    0.01    0.05
  HS02004852HS02004856 CONDUIT      7.15     0  02:16      0.11    0.01    0.09
  HS02004802HS02004478 CONDUIT     48.92     0  02:17      0.29    0.04    0.24
  HS02004478WS02006287 CONDUIT    184.66     0  02:14      1.26    0.05    0.16
  HS02004817HS02004807 CONDUIT     36.62     0  02:18      0.10    0.02    0.50
  HS02004807HS02004802 CONDUIT     48.67     0  02:16      0.24    0.09    0.29
  YS02001759YS02001757 CONDUIT    175.77     0  03:01      0.22    0.12    1.00
  YS02001762YS02001759 CONDUIT     96.97     0  03:01      0.17    0.11    1.00
  YS02001765YS02001762 CONDUIT     97.20     0  03:01      0.24    0.09    1.00
  YS02001770YS02001767 CONDUIT    116.99     0  03:05      0.29    0.46    1.00
  YS02001774YS02001770 CONDUIT     45.30     0  03:04      0.13    0.03    1.00
  YS02001779YS02001774 CONDUIT     44.03     0  03:04      0.07    0.02    1.00
  YS02001649YS02001757 CONDUIT    263.86     0  03:03      0.34    0.16    1.00
  YS02001767YS02001765 CONDUIT     94.79     0  02:43      0.26    0.12    1.00
  YS02006561YS02001783 CONDUIT    283.06     0  02:48      1.74    0.15    0.36
  YS02001783YS02001784 CONDUIT    283.06     0  02:48      1.19    0.39    0.48
  YS02001784YS02001785 CONDUIT    284.11     0  02:48      1.26    0.66    0.46
  YS02001788YS02001790 CONDUIT    284.24     0  02:48      1.83    0.21    0.35
  YS02001790YS02001791 CONDUIT    284.39     0  02:49      2.14    0.31    0.32
  YS02001791YS02001793 CONDUIT    297.55     0  03:00      4.26    0.13    0.59
  YS02001910YS02001907 CONDUIT     87.52     0  03:00      0.49    0.05    0.71
  YS02001786YS02001788 CONDUIT    284.17     0  02:48      1.70    0.55    0.37
  YS02001915YS02001910 CONDUIT     87.24     0  02:59      0.45    0.04    0.50
  YS02001918YS02001915 CONDUIT     29.84     0  03:03      0.44    0.02    0.24
  YS02001923YS02001920 CONDUIT     27.00     0  03:02      0.42    0.01    0.14
  YS02001926YS02001923 CONDUIT     26.96     0  03:01      0.47    0.04    0.13
  YS02001929YS02001926 CONDUIT     26.95     0  03:01      0.49    0.01    0.12
  YS02001920YS02001918 CONDUIT     29.86     0  03:02      0.44    0.03    0.14
  YS02001629YS02163301 CONDUIT     66.74     0  03:08      0.10    0.08    1.00
  YS02001619YS02001622 CONDUIT     77.28     0  03:06      0.61    0.11    1.00
  YS02001622YS02001625 CONDUIT     72.80     0  03:08      0.23    0.04    1.00
  YS02001625YS02001629 CONDUIT     86.16     0  03:08      0.23    0.04    1.00
  YS02163301YS02001633 CONDUIT     60.63     0  03:04      0.08    0.06    1.00
  YS02163601YS02164001 CONDUIT    119.66     0  03:05      0.15    0.11    1.00
  YS02164001YS02001641 CONDUIT    117.91     0  03:03      0.15    0.16    1.00
  YS02001641YS02001644 CONDUIT    117.62     0  03:03      0.15    0.38    1.00
  YS02001647YS02001649 CONDUIT    200.44     0  03:05      0.26    0.11    1.00
  YS02006553YS02006556 CONDUIT    192.75     0  02:51      0.29    0.16    0.80
  YS02006556YS02006558 CONDUIT    192.79     0  02:51      0.28    0.15    0.82
  YSB6556YSB1171       CONDUIT     11.66     0  02:15      0.05    0.01    0.56
  YS02001907YS02006553 CONDUIT    192.69     0  02:50      0.24    0.23    0.90
  YS02006558YS02006561 CONDUIT    283.06     0  02:48      2.24    0.63    0.46
  YS02001633YS02163601 CONDUIT    122.27     0  03:05      0.16    0.13    1.00
  YS02001644YS02001647 CONDUIT    174.30     0  03:05      0.24    0.10    1.00
  YS02001745YS02001748 CONDUIT    101.35     0  03:47      1.37    0.04    0.74
  YS02001748YS02001751 CONDUIT    123.35     0  03:01      1.06    0.06    1.00
  YS02001751YS02001754 CONDUIT     74.09     0  02:37      0.92    0.04    1.00
  YS02001754YS02001757 CONDUIT    101.45     0  03:02      0.33    0.04    1.00
  YS02001882YS02001884 CONDUIT      3.28     0  02:04      0.07    0.00    0.44
  YS02001884YS02001887 CONDUIT      9.70     0  02:07      0.05    0.01    0.53
  YS02001890YS02001895 CONDUIT    107.26     0  02:40      0.27    0.05    0.50
  YS02001895YS02001898 CONDUIT    107.04     0  02:42      0.44    0.19    0.37
  YS02001898YS02001901 CONDUIT    106.87     0  02:42      0.32    0.07    0.44
  YS02001901YS02001904 CONDUIT    106.63     0  02:44      0.28    0.17    0.50
  YS02001904YS02001907 CONDUIT    106.60     0  02:44      0.20    0.04    0.66
  YS02001887YS02001890 CONDUIT    107.53     0  02:39      0.23    0.18    0.59
  YS02001652YS02001649 CONDUIT    110.69     0  03:00      0.31    0.05    1.00
  YS02001655YS02001652 CONDUIT     85.60     0  02:41      0.96    0.04    1.00
  YS02001658YS02001655 CONDUIT    119.31     0  02:59      1.22    0.05    0.98
  YS02001661YS02001658 CONDUIT     83.13     0  05:11      1.41    0.03    0.78
  YS02001664YS02001661 CONDUIT    104.78     0  05:09      1.06    0.03    0.43
  YSB1154YSB6556       CONDUIT     11.52     0  02:13      0.19    0.02    0.45
  YSB1174YSB1171       CONDUIT     10.31     0  02:07      0.05    0.02    0.57
  YSB1171HS02004479    CONDUIT     21.24     0  02:15      0.54    0.01    0.43
  HS02004881HS02006253 CONDUIT     34.77     0  02:14      1.59    0.01    0.50
  YS02001793JiankangQianchi CONDUIT    901.29     0  03:05     12.77    0.07    0.90
  YS02001757CaochengTiaoxuchi CONDUIT    442.43     0  02:52      0.89    0.19    1.00
  WSF200WS02003060     CONDUIT    523.54     0  05:58      2.04    0.12    0.34
  1                    CONDUIT    923.42     0  06:02      3.26    0.32    0.39
  CC-Pump-1            PUMP       200.00     0  05:10              1.00
  CC-Pump-2            PUMP       200.00     0  07:40              1.00
  JK-Pump-1            PUMP       300.00     0  00:00              1.00
  JK-Pump-2            PUMP       683.00     0  00:00              1.00
  XR-Pump-1            PUMP        95.00     0  00:00              1.00
  XR-Pump-2            PUMP        95.00     0  00:00              1.00
  XR-Pump-3            PUMP        95.00     0  00:00              1.00
  XR-Pump-4            PUMP        95.00     0  00:00              1.00
  
  
  ***************************
  Flow Classification Summary
  ***************************
  
  -------------------------------------------------------------------------------------
                      Adjusted    ---------- Fraction of Time in Flow Class ---------- 
                       /Actual         Up    Down  Sub   Sup   Up    Down  Norm  Inlet 
  Conduit               Length    Dry  Dry   Dry   Crit  Crit  Crit  Crit  Ltd   Ctrl  
  -------------------------------------------------------------------------------------
  WS02003066WSF200        1.00   0.02  0.07  0.00  0.00  0.91  0.00  0.00  0.69  0.00
  WS02006287WS02006284    1.00   0.03  0.02  0.00  0.80  0.15  0.00  0.00  0.78  0.00
  WS02006284WS02006280    1.00   0.04  0.00  0.00  0.00  0.00  0.00  0.96  0.00  0.00
  WS02006280WS02006229    1.00   0.04  0.00  0.00  0.00  0.00  0.00  0.96  0.00  0.00
  WS02006229WS02006228    1.00   0.00  0.00  0.00  1.00  0.00  0.00  0.00  0.00  0.00
  WS02006256WS02006235    1.00   0.00  0.00  0.00  1.00  0.00  0.00  0.00  0.00  0.00
  WS02006253WS02006251    1.00   0.02  0.02  0.00  0.96  0.00  0.00  0.00  0.00  0.00
  WS02006252WS02006251    1.00   0.28  0.00  0.00  0.01  0.00  0.70  0.00  0.00  0.00
  WS02006251WS02006249    1.00   0.00  0.00  0.00  1.00  0.00  0.00  0.00  0.58  0.00
  WS02006249WS02006248    1.00   0.00  0.01  0.00  0.80  0.00  0.19  0.00  0.00  0.00
  WS02006248WS02006247    1.00   0.01  0.00  0.00  0.98  0.00  0.00  0.02  0.31  0.00
  WS02006247WS02006245    1.00   0.01  0.00  0.00  0.96  0.00  0.00  0.03  0.00  0.00
  WS02006245WS02006243    1.00   0.00  0.00  0.00  0.91  0.00  0.00  0.09  0.02  0.00
  WS02006243WS02006242    1.00   0.00  0.00  0.00  1.00  0.00  0.00  0.00  0.38  0.00
  WS02006242WS02006240    1.00   0.00  0.00  0.00  1.00  0.00  0.00  0.00  0.00  0.00
  WS02006240WS02006239    1.00   0.00  0.00  0.00  0.91  0.00  0.00  0.08  0.02  0.00
  WS02006239WS02006238    1.00   0.00  0.00  0.00  1.00  0.00  0.00  0.00  0.22  0.00
  WS02006238WS02006235    1.00   0.00  0.00  0.00  1.00  0.00  0.00  0.00  0.00  0.00
  WS02006235WS02006234    1.00   0.00  0.00  0.00  0.93  0.00  0.07  0.00  0.00  0.00
  WS02006234WS02006232    1.00   0.00  0.00  0.00  1.00  0.00  0.00  0.00  0.17  0.00
  WS02006232WS02006231    1.00   0.00  0.00  0.00  1.00  0.00  0.00  0.00  0.00  0.00
  WS02006231WS02006230    1.00   0.00  0.00  0.00  0.44  0.00  0.56  0.00  0.00  0.00
  WS02006230WS02006229    1.00   0.00  0.00  0.00  1.00  0.00  0.00  0.00  0.01  0.00
  WS02006228WS02006109    1.00   0.00  0.00  0.00  1.00  0.00  0.00  0.00  0.01  0.00
  WS02006116WS02004401    1.00   0.01  0.00  0.00  0.99  0.00  0.00  0.00  0.01  0.00
  WS02006115WS02006116    1.00   0.01  0.00  0.00  0.97  0.00  0.00  0.02  0.01  0.00
  WS02006113WS02006111    1.00   0.01  0.00  0.00  0.00  0.99  0.00  0.00  0.22  0.00
  WS02006112WS02006115    1.00   0.01  0.00  0.00  0.99  0.00  0.00  0.00  0.00  0.00
  WS02006111WS02006112    1.00   0.01  0.00  0.00  0.99  0.00  0.00  0.00  0.98  0.00
  WS02006110WS02006113    1.00   0.00  0.00  0.00  0.99  0.00  0.00  0.00  0.00  0.00
  WS02006109WS02006110    1.00   0.00  0.00  0.00  0.99  0.00  0.00  0.00  0.00  0.00
  WS02004411WS02004412    1.00   0.06  0.00  0.00  0.94  0.00  0.00  0.00  0.00  0.00
  WS02004401WS02004402    1.00   0.01  0.00  0.00  0.99  0.00  0.00  0.00  0.01  0.00
  WS02004413WS02003067    1.00   0.07  0.02  0.00  0.00  0.00  0.91  0.00  0.00  0.00
  WS02004412WS02004413    1.00   0.07  0.00  0.00  0.93  0.00  0.00  0.00  0.01  0.00
  WS02004410WS02004411    1.00   0.06  0.00  0.00  0.94  0.00  0.00  0.00  0.00  0.00
  WS02004409WS02004410    1.00   0.06  0.00  0.00  0.94  0.00  0.00  0.00  0.00  0.00
  WS02004407WS02004409    1.00   0.06  0.00  0.00  0.93  0.00  0.00  0.00  0.78  0.00
  WS02004406WS02004407    1.00   0.00  0.06  0.00  0.94  0.00  0.00  0.00  0.00  0.00
  WS02004405WS02004406    1.00   0.00  0.00  0.00  1.00  0.00  0.00  0.00  0.02  0.00
  WS02004404WS02004405    1.00   0.00  0.00  0.00  1.00  0.00  0.00  0.00  0.00  0.00
  WS02004403WS02004404    1.00   0.00  0.01  0.00  0.99  0.00  0.00  0.00  0.02  0.00
  WS02004402WS02004403    1.00   0.01  0.00  0.00  0.99  0.00  0.00  0.00  0.00  0.00
  WS02004139WS02001211    1.00   0.00  0.00  0.00  1.00  0.00  0.00  0.00  0.00  0.00
  WS02004138WS02004139    1.00   0.00  0.02  0.00  0.98  0.00  0.00  0.00  1.00  0.00
  WS02003067WS02003066    1.00   0.09  0.01  0.00  0.91  0.00  0.00  0.00  0.00  0.00
  WS02001213WS02003059    1.00   0.00  0.00  0.00  1.00  0.00  0.00  0.00  0.00  0.00
  WS02001212WS02001213    1.00   0.00  0.00  0.00  0.83  0.00  0.17  0.00  0.00  0.00
  WS02001211WS02001212    1.00   0.00  0.00  0.00  1.00  0.00  0.00  0.00  0.00  0.00
  WS02003072WS02003073    1.00   0.00  0.00  0.00  0.00  0.00  0.00  1.00  0.00  0.00
  WS02003069WS02003072    1.00   0.00  0.00  0.00  1.00  0.00  0.00  0.00  0.26  0.00
  WS02003060WS02003069    1.00   0.00  0.00  0.00  0.97  0.03  0.00  0.00  0.22  0.00
  WS02003059WS02003060    1.00   0.00  0.00  0.00  1.00  0.00  0.00  0.00  0.00  0.00
  HS02004901HS02004770    1.00   0.04  0.00  0.00  0.96  0.00  0.00  0.00  0.02  0.00
  HS02004876HS02004881    1.00   0.01  0.00  0.00  0.99  0.00  0.00  0.00  0.00  0.00
  HS02004870HS02004876    1.00   0.00  0.00  0.00  0.99  0.00  0.00  0.00  0.95  0.00
  HS02004842HS02004848    1.00   0.00  0.04  0.00  0.96  0.00  0.00  0.00  0.67  0.00
  HS02004837HS02004842    1.00   0.00  0.00  0.00  1.00  0.00  0.00  0.00  0.11  0.00
  HS02004830HS02004837    1.00   0.00  0.00  0.00  1.00  0.00  0.00  0.00  0.99  0.00
  HS02004824HS02004830    1.00   0.00  0.00  0.00  1.00  0.00  0.00  0.00  0.00  0.00
  HS02004817HS02004824    1.00   0.00  0.00  0.00  1.00  0.00  0.00  0.00  1.00  0.00
  HS02004770HS02004777    1.00   0.00  0.04  0.00  0.96  0.00  0.00  0.00  0.06  0.00
  HS02004799HS02004480    1.00   0.00  0.01  0.00  0.94  0.00  0.05  0.00  0.00  0.00
  HS02004792HS02004799    1.00   0.00  0.00  0.00  1.00  0.00  0.00  0.00  0.98  0.00
  HS02004788HS02004792    1.00   0.00  0.00  0.00  1.00  0.00  0.00  0.00  0.98  0.00
  HS02004785HS02004788    1.00   0.00  0.00  0.00  1.00  0.00  0.00  0.00  0.00  0.00
  HS02004777HS02004785    1.00   0.00  0.00  0.00  1.00  0.00  0.00  0.00  0.18  0.00
  HS02004480HS02004478    1.00   0.05  0.00  0.00  0.81  0.00  0.00  0.14  0.00  0.00
  HS02004479HS02004480    1.00   0.01  0.00  0.00  0.99  0.00  0.00  0.00  0.15  0.00
  HS02004862HS02004870    1.00   0.00  0.00  0.00  1.00  0.00  0.00  0.00  0.06  0.00
  HS02004848HS02004852    1.00   0.04  0.00  0.00  0.96  0.00  0.00  0.00  0.71  0.00
  HS02004856HS02004862    1.00   0.00  0.07  0.00  0.93  0.00  0.00  0.00  0.76  0.00
  HS02004852HS02004856    1.00   0.04  0.01  0.00  0.95  0.00  0.00  0.00  0.83  0.00
  HS02004802HS02004478    1.00   0.04  0.01  0.00  0.95  0.00  0.00  0.00  0.01  0.00
  HS02004478WS02006287    1.00   0.06  0.00  0.00  0.91  0.03  0.00  0.00  0.80  0.00
  HS02004817HS02004807    1.00   0.00  0.04  0.00  0.96  0.00  0.00  0.00  0.00  0.00
  HS02004807HS02004802    1.00   0.04  0.00  0.00  0.96  0.00  0.00  0.00  0.01  0.00
  YS02001759YS02001757    1.00   0.00  0.00  0.00  1.00  0.00  0.00  0.00  0.18  0.00
  YS02001762YS02001759    1.00   0.00  0.00  0.00  1.00  0.00  0.00  0.00  0.04  0.00
  YS02001765YS02001762    1.00   0.00  0.00  0.00  1.00  0.00  0.00  0.00  0.21  0.00
  YS02001770YS02001767    1.00   0.00  0.00  0.00  1.00  0.00  0.00  0.00  0.00  0.00
  YS02001774YS02001770    1.00   0.00  0.05  0.00  0.95  0.00  0.00  0.00  0.06  0.00
  YS02001779YS02001774    1.00   0.00  0.00  0.00  1.00  0.00  0.00  0.00  0.25  0.00
  YS02001649YS02001757    1.00   0.00  0.00  0.00  1.00  0.00  0.00  0.00  0.19  0.00
  YS02001767YS02001765    1.00   0.00  0.00  0.00  1.00  0.00  0.00  0.00  0.01  0.00
  YS02006561YS02001783    1.00   0.08  0.00  0.00  0.00  0.92  0.00  0.00  0.75  0.00
  YS02001783YS02001784    1.00   0.00  0.08  0.00  0.92  0.00  0.00  0.00  0.01  0.00
  YS02001784YS02001785    1.00   0.00  0.00  0.00  1.00  0.00  0.00  0.00  0.24  0.00
  YS02001788YS02001790    1.00   0.00  0.00  0.00  0.08  0.92  0.00  0.00  0.79  0.00
  YS02001790YS02001791    1.00   0.00  0.00  0.00  0.01  0.99  0.00  0.00  0.53  0.00
  YS02001791YS02001793    1.00   0.00  0.00  0.00  0.01  0.99  0.00  0.00  0.04  0.00
  YS02001910YS02001907    1.00   0.00  0.00  0.00  0.99  0.00  0.00  0.01  0.13  0.00
  YS02001786YS02001788    1.00   0.00  0.00  0.00  0.08  0.92  0.00  0.00  0.00  0.00
  YS02001915YS02001910    1.00   0.00  0.00  0.00  1.00  0.00  0.00  0.00  0.23  0.00
  YS02001918YS02001915    1.00   0.00  0.00  0.00  0.99  0.00  0.00  0.00  0.83  0.00
  YS02001923YS02001920    1.00   0.00  0.00  0.00  1.00  0.00  0.00  0.00  1.00  0.00
  YS02001926YS02001923    1.00   0.00  0.02  0.00  0.00  0.00  0.98  0.00  0.00  0.00
  YS02001929YS02001926    1.00   0.00  0.04  0.00  0.96  0.00  0.00  0.00  0.86  0.00
  YS02001920YS02001918    1.00   0.00  0.00  0.00  1.00  0.00  0.00  0.00  0.00  0.00
  YS02001629YS02163301    1.00   0.06  0.01  0.00  0.93  0.00  0.00  0.00  0.00  0.00
  YS02001619YS02001622    1.00   0.04  0.00  0.00  0.96  0.00  0.00  0.00  0.00  0.00
  YS02001622YS02001625    1.00   0.04  0.00  0.00  0.96  0.00  0.00  0.00  0.12  0.00
  YS02001625YS02001629    1.00   0.04  0.04  0.00  0.90  0.00  0.02  0.00  0.00  0.00
  YS02163301YS02001633    1.00   0.00  0.06  0.00  0.94  0.00  0.00  0.00  0.00  0.00
  YS02163601YS02164001    1.00   0.00  0.03  0.00  0.97  0.00  0.00  0.00  0.00  0.00
  YS02164001YS02001641    1.00   0.00  0.02  0.00  0.97  0.00  0.00  0.00  0.07  0.00
  YS02001641YS02001644    1.00   0.00  0.00  0.00  1.00  0.00  0.00  0.00  0.00  0.00
  YS02001647YS02001649    1.00   0.00  0.07  0.00  0.93  0.00  0.00  0.00  0.01  0.00
  YS02006553YS02006556    1.00   0.01  0.00  0.00  0.99  0.00  0.00  0.00  0.03  0.00
  YS02006556YS02006558    1.00   0.00  0.00  0.00  1.00  0.00  0.00  0.00  0.00  0.00
  YSB6556YSB1171          1.00   0.01  0.02  0.00  0.96  0.00  0.00  0.00  0.00  0.00
  YS02001907YS02006553    1.00   0.00  0.01  0.00  0.99  0.00  0.00  0.00  0.00  0.00
  YS02006558YS02006561    1.00   0.08  0.00  0.00  0.00  0.92  0.00  0.00  0.73  0.00
  YS02001633YS02163601    1.00   0.00  0.00  0.00  1.00  0.00  0.00  0.00  0.19  0.00
  YS02001644YS02001647    1.00   0.00  0.07  0.00  0.93  0.00  0.00  0.00  0.00  0.00
  YS02001745YS02001748    1.00   0.00  0.00  0.00  0.86  0.01  0.00  0.12  0.13  0.00
  YS02001748YS02001751    1.00   0.00  0.00  0.00  0.96  0.04  0.00  0.00  0.22  0.00
  YS02001751YS02001754    1.00   0.00  0.00  0.00  0.91  0.00  0.00  0.08  0.02  0.00
  YS02001754YS02001757    1.00   0.00  0.00  0.00  1.00  0.00  0.00  0.00  0.25  0.00
  YS02001882YS02001884    1.00   0.06  0.00  0.00  0.94  0.00  0.00  0.00  0.00  0.00
  YS02001884YS02001887    1.00   0.02  0.02  0.00  0.97  0.00  0.00  0.00  0.00  0.00
  YS02001890YS02001895    1.00   0.00  0.06  0.00  0.93  0.00  0.00  0.00  0.00  0.00
  YS02001895YS02001898    1.00   0.07  0.00  0.00  0.92  0.00  0.01  0.00  0.00  0.00
  YS02001898YS02001901    1.00   0.06  0.00  0.00  0.93  0.00  0.00  0.00  0.02  0.00
  YS02001901YS02001904    1.00   0.06  0.00  0.00  0.94  0.00  0.00  0.00  0.00  0.00
  YS02001904YS02001907    1.00   0.00  0.06  0.00  0.94  0.00  0.00  0.00  0.00  0.00
  YS02001887YS02001890    1.00   0.00  0.00  0.00  0.99  0.00  0.01  0.00  0.00  0.00
  YS02001652YS02001649    1.00   0.00  0.00  0.00  1.00  0.00  0.00  0.00  0.24  0.00
  YS02001655YS02001652    1.00   0.00  0.00  0.00  0.92  0.00  0.00  0.08  0.02  0.00
  YS02001658YS02001655    1.00   0.00  0.05  0.00  0.90  0.04  0.00  0.00  0.12  0.00
  YS02001661YS02001658    1.00   0.05  0.00  0.00  0.86  0.08  0.00  0.00  0.16  0.00
  YS02001664YS02001661    1.00   0.04  0.00  0.00  0.87  0.09  0.00  0.00  0.62  0.00
  YSB1154YSB6556          1.00   0.04  0.00  0.00  0.96  0.00  0.00  0.00  0.02  0.00
  YSB1174YSB1171          1.00   0.02  0.01  0.00  0.97  0.00  0.00  0.00  0.00  0.00
  YSB1171HS02004479       1.00   0.01  0.00  0.00  0.98  0.00  0.00  0.00  0.13  0.00
  HS02004881HS02006253    1.00   0.02  0.00  0.00  0.62  0.01  0.00  0.35  0.33  0.00
  YS02001793JiankangQianchi    1.00   0.00  0.00  0.00  0.65  0.35  0.00  0.00  0.65  0.00
  YS02001757CaochengTiaoxuchi    1.00   0.00  0.10  0.00  0.90  0.00  0.00  0.00  0.00  0.00
  WSF200WS02003060        1.00   0.00  0.02  0.00  0.67  0.30  0.00  0.00  0.60  0.00
  1                       1.00   0.00  0.00  0.00  0.00  1.00  0.00  0.00  0.47  0.00
  
  
  *************************
  Conduit Surcharge Summary
  *************************
  
  ----------------------------------------------------------------------------
                                                           Hours        Hours 
                         --------- Hours Full --------   Above Full   Capacity
  Conduit                Both Ends  Upstream  Dnstream   Normal Flow   Limited
  ----------------------------------------------------------------------------
  WS02006229WS02006228        1.28      1.45      1.28      2.43         1.28
  WS02006256WS02006235        4.76      4.77      6.16      3.22         0.01
  WS02006253WS02006251        0.48      0.48      0.51      0.01         0.01
  WS02006252WS02006251        0.51      0.51      1.06      0.91         0.01
  WS02006251WS02006249        0.49      0.49      0.52      0.39         0.26
  WS02006249WS02006248        0.48      0.48      0.52      2.39         0.01
  WS02006248WS02006247        0.51      0.51      0.56      0.01         0.01
  WS02006247WS02006245        0.55      0.58      0.55      2.63         0.55
  WS02006245WS02006243        0.56      0.56      0.59      0.40         0.31
  WS02006243WS02006242        0.62      0.62      0.89      0.01         0.01
  WS02006242WS02006240        0.73      0.73      1.09      1.12         0.01
  WS02006240WS02006239        0.78      0.78      0.89      0.54         0.42
  WS02006239WS02006238        1.11      1.11      1.24      0.58         0.47
  WS02006238WS02006235        1.19      1.19      1.29      0.01         0.01
  WS02006235WS02006234        0.83      0.83      1.12      4.70         0.01
  WS02006234WS02006232        0.95      0.95      1.29      0.10         0.10
  WS02006232WS02006231        0.32      0.32      1.29      0.26         0.01
  WS02006231WS02006230        0.07      0.07      0.35      4.92         0.01
  WS02006230WS02006229        1.77      2.04      1.77      5.32         1.77
  WS02006228WS02006109        1.37      1.58      1.37      3.43         1.37
  WS02006112WS02006115        0.01      0.01      0.21      0.01         0.01
  WS02006111WS02006112        0.01      0.01      2.40      0.01         0.01
  WS02006110WS02006113        0.01      0.01      1.52      0.01         0.01
  WS02006109WS02006110        0.09      0.09      1.58      0.09         0.01
  WS02004405WS02004406        0.01      0.01      0.01      0.12         0.01
  WS02004404WS02004405        0.01      0.01      0.01      5.38         0.01
  WS02003072WS02003073        0.01      0.01      0.01      4.02         0.01
  YS02001759YS02001757        5.09      5.09      5.33      0.01         0.01
  YS02001762YS02001759        4.97      4.97      5.09      0.01         0.01
  YS02001765YS02001762        4.80      4.80      4.97      0.01         0.01
  YS02001770YS02001767        4.67      4.67      4.70      0.01         0.14
  YS02001774YS02001770        4.59      4.59      4.90      0.01         0.01
  YS02001779YS02001774        4.10      4.10      4.90      0.01         0.01
  YS02001649YS02001757        5.01      5.01      5.33      0.01         0.01
  YS02001767YS02001765        4.70      4.70      4.80      0.01         0.01
  YS02001791YS02001793        0.01      0.01      0.01      0.01         0.01
  YS02001629YS02163301        4.53      4.53      4.63      0.01         0.01
  YS02001619YS02001622        2.45      2.45      2.64      0.01         0.01
  YS02001622YS02001625        2.64      2.64      4.37      0.01         0.01
  YS02001625YS02001629        2.45      2.45      4.37      0.01         0.01
  YS02163301YS02001633        4.63      4.63      4.82      0.01         0.01
  YS02163601YS02164001        4.80      4.80      5.00      0.01         0.01
  YS02164001YS02001641        4.80      4.80      4.87      0.01         0.01
  YS02001641YS02001644        4.87      4.87      4.88      0.01         0.21
  YS02001647YS02001649        4.35      4.35      5.01      0.01         0.01
  YS02001633YS02163601        4.75      4.75      5.00      0.01         0.01
  YS02001644YS02001647        4.35      4.35      4.88      0.01         0.01
  YS02001748YS02001751        0.01      0.01      2.90      0.01         0.01
  YS02001751YS02001754        2.90      2.90      4.22      0.01         0.01
  YS02001754YS02001757        4.35      4.35      5.33      0.01         0.01
  YS02001652YS02001649        4.39      4.39      5.01      0.01         0.01
  YS02001655YS02001652        3.14      3.14      4.31      0.01         0.01
  YS02001658YS02001655        0.01      0.01      3.14      0.01         0.01
  HS02004881HS02006253        0.01      0.01      0.20      0.01         0.01
  YS02001793JiankangQianchi        0.01      0.01      2.94      0.01         0.01
  YS02001757CaochengTiaoxuchi        1.38      1.38      5.33      0.01         0.01
  
  
  ***************
  Pumping Summary
  ***************
  
  ---------------------------------------------------------------------------------------------------------
                                                  Min       Avg       Max     Total     Power    % Time Off
                        Percent   Number of      Flow      Flow      Flow    Volume     Usage    Pump Curve
  Pump                 Utilized   Start-Ups       LPS       LPS       LPS  10^6 ltr     Kw-hr    Low   High
  ---------------------------------------------------------------------------------------------------------
  CC-Pump-1               40.42           1      0.00    181.85    200.00     1.980      3.81    0.0    0.0
  CC-Pump-2               17.02           3      0.00     87.82    200.00     0.540      1.37    0.0    0.0
  JK-Pump-1               51.06           6      0.00    150.98    300.00     2.161     39.74    0.0    0.0
  JK-Pump-2               34.04           6      0.00    139.77    683.00     1.590     31.98    0.0   94.3
  XR-Pump-1               80.85           4      0.00     85.20     95.00     1.910     39.49    0.0    0.0
  XR-Pump-2               78.72           5      0.00     84.88     95.00     1.853     38.24    0.0    0.0
  XR-Pump-3               74.47           5      0.00     82.85     95.00     1.682     34.06    0.0    0.0
  XR-Pump-4               74.47           5      0.00     82.85     95.00     1.682     34.06    0.0    0.0
  
  
  ***************************
  Link Pollutant Load Summary
  ***************************
  
  ------------------------------------------------------------------------------------------
                                 COD            SS            TN            TP         NH4-N
  Link                            kg            kg            kg            kg            kg
  ------------------------------------------------------------------------------------------
  WS02003066WSF200           307.950       508.808        12.462         1.280         7.087
  WS02006287WS02006284       101.876       172.378         6.168         0.717         3.706
  WS02006284WS02006280       102.301       173.063         6.207         0.722         3.731
  WS02006280WS02006229       102.284       173.033         6.206         0.722         3.730
  WS02006229WS02006228       315.432       520.458        12.146         1.221         6.845
  WS02006256WS02006235        80.598       130.756         2.799         0.268         1.554
  WS02006253WS02006251        14.979        26.248         0.465         0.042         0.250
  WS02006252WS02006251       133.343       215.923         3.053         0.217         1.497
  WS02006251WS02006249       143.309       234.086         3.413         0.252         1.697
  WS02006249WS02006248       141.635       231.374         3.368         0.248         1.674
  WS02006248WS02006247       141.251       230.781         3.360         0.248         1.671
  WS02006247WS02006245       140.787       230.044         3.349         0.247         1.665
  WS02006245WS02006243       140.297       229.296         3.333         0.246         1.657
  WS02006243WS02006242       140.822       230.278         3.351         0.247         1.667
  WS02006242WS02006240       142.302       232.888         3.393         0.251         1.690
  WS02006240WS02006239       144.148       236.031         3.454         0.257         1.724
  WS02006239WS02006238       146.959       240.574         3.571         0.270         1.791
  WS02006238WS02006235       148.469       242.954         3.634         0.276         1.828
  WS02006235WS02006234       216.602       353.007         6.033         0.507         3.163
  WS02006234WS02006232       216.169       352.307         6.030         0.507         3.162
  WS02006232WS02006231       215.523       351.259         6.013         0.506         3.154
  WS02006231WS02006230       214.562       349.694         5.991         0.505         3.143
  WS02006230WS02006229       213.836       348.533         5.967         0.502         3.130
  WS02006228WS02006109       314.866       519.577        12.136         1.221         6.841
  WS02006116WS02004401       319.598       527.492        12.814         1.310         7.274
  WS02006115WS02006116       320.624       529.126        12.841         1.313         7.289
  WS02006113WS02006111       321.015       529.407        12.872         1.315         7.307
  WS02006112WS02006115       322.022       531.395        12.895         1.318         7.319
  WS02006111WS02006112       320.677       528.867        12.868         1.315         7.306
  WS02006110WS02006113       321.718       530.550        12.899         1.318         7.322
  WS02006109WS02006110       322.930       532.515        12.949         1.323         7.351
  WS02004411WS02004412       311.713       514.886        12.617         1.295         7.175
  WS02004401WS02004402       318.335       525.450        12.766         1.306         7.248
  WS02004413WS02003067       308.529       509.721        12.478         1.281         7.096
  WS02004412WS02004413       310.494       512.927        12.575         1.292         7.152
  WS02004410WS02004411       312.702       516.466        12.650         1.299         7.193
  WS02004409WS02004410       313.795       518.224        12.690         1.302         7.216
  WS02004407WS02004409       314.545       519.408        12.712         1.304         7.227
  WS02004406WS02004407       314.596       519.453        12.707         1.303         7.224
  WS02004405WS02004406       316.363       522.306        12.794         1.313         7.275
  WS02004404WS02004405       316.791       522.956        12.777         1.310         7.261
  WS02004403WS02004404       316.321       522.210        12.694         1.299         7.208
  WS02004402WS02004403       317.366       523.903        12.735         1.303         7.231
  WS02004139WS02001211      1236.057      1979.698       116.531        14.521        72.694
  WS02004138WS02004139      1236.943      1981.121       116.610        14.531        72.743
  WS02003067WS02003066       308.179       509.177        12.472         1.281         7.093
  WS02001213WS02003059      1277.020      2045.230       120.473        15.014        75.159
  WS02001212WS02001213      1281.706      2052.732       120.917        15.069        75.436
  WS02001211WS02001212      1282.917      2054.671       121.032        15.084        75.508
  WS02003072WS02003073      1694.337      2729.006       143.650        17.636        88.952
  WS02003069WS02003072      1697.890      2734.719       143.952        17.674        89.140
  WS02003060WS02003069      1697.285      2733.755       143.825        17.656        89.057
  WS02003059WS02003060      1277.107      2045.364       120.471        15.013        75.157
  HS02004901HS02004770         2.265         4.036         0.044         0.003         0.020
  HS02004876HS02004881         9.199        16.515         0.288         0.026         0.154
  HS02004870HS02004876         7.173        12.801         0.257         0.024         0.141
  HS02004842HS02004848         1.272         2.198         0.029         0.002         0.013
  HS02004837HS02004842         5.910         9.593         0.496         0.061         0.306
  HS02004830HS02004837        48.030        77.913         4.222         0.522         2.624
  HS02004824HS02004830        48.781        79.115         4.294         0.531         2.669
  HS02004817HS02004824        53.742        87.974         4.426         0.541         2.737
  HS02004770HS02004777         8.815        15.845         0.195         0.013         0.088
  HS02004799HS02004480        40.214        68.876         1.905         0.208         1.102
  HS02004792HS02004799        37.761        64.151         1.906         0.212         1.112
  HS02004788HS02004792        25.324        42.865         1.518         0.174         0.904
  HS02004785HS02004788        10.309        18.247         0.347         0.032         0.184
  HS02004777HS02004785         9.799        17.425         0.300         0.026         0.155
  HS02004480HS02004478        47.375        82.135         1.982         0.211         1.130
  HS02004479HS02004480        11.564        20.283         0.496         0.055         0.290
  HS02004862HS02004870         5.419         9.459         0.221         0.022         0.124
  HS02004848HS02004852         1.417         2.469         0.032         0.002         0.014
  HS02004856HS02004862         2.819         5.114         0.060         0.004         0.028
  HS02004852HS02004856         1.415         2.463         0.032         0.002         0.014
  HS02004802HS02004478        54.802        90.731         4.213         0.510         2.593
  HS02004478WS02006287       102.054       172.669         6.183         0.719         3.716
  HS02004817HS02004807        52.367        85.775         4.296         0.525         2.656
  HS02004807HS02004802        55.509        91.860         4.281         0.518         2.635
  YS02001759YS02001757        83.334       136.451         2.031         0.150         1.031
  YS02001762YS02001759        44.785        73.987         1.247         0.099         0.653
  YS02001765YS02001762        44.415        73.295         1.264         0.102         0.665
  YS02001770YS02001767        42.129        69.546         0.975         0.063         0.480
  YS02001774YS02001770         4.266         7.106         0.109         0.008         0.056
  YS02001779YS02001774         3.330         5.481         0.155         0.016         0.090
  YS02001649YS02001757       121.983       193.433         2.752         0.199         1.326
  YS02001767YS02001765        44.561        73.482         1.283         0.104         0.676
  YS02006561YS02001783       183.874       299.461         5.707         0.518         3.098
  YS02001783YS02001784       183.806       299.362         5.704         0.517         3.096
  YS02001784YS02001785       191.177       311.171         6.417         0.607         3.542
  YS02001788YS02001790       191.858       312.278         6.490         0.616         3.588
  YS02001790YS02001791       192.850       313.874         6.589         0.628         3.650
  YS02001791YS02001793       192.798       313.797         6.584         0.628         3.647
  YS02001910YS02001907        67.767       108.974         3.093         0.317         1.783
  YS02001786YS02001788       191.420       311.569         6.445         0.610         3.560
  YS02001915YS02001910        67.656       108.741         3.051         0.311         1.755
  YS02001918YS02001915        38.399        60.161         2.368         0.274         1.428
  YS02001923YS02001920        18.369        28.104         0.431         0.032         0.217
  YS02001926YS02001923        17.994        27.498         0.392         0.027         0.192
  YS02001929YS02001926        17.703        27.024         0.360         0.023         0.172
  YS02001920YS02001918        38.314        60.024         2.349         0.272         1.416
  YS02001629YS02163301        20.784        33.116         0.483         0.030         0.223
  YS02001619YS02001622        23.352        36.991         0.544         0.033         0.249
  YS02001622YS02001625        22.588        35.870         0.524         0.032         0.241
  YS02001625YS02001629        21.572        34.374         0.500         0.031         0.230
  YS02163301YS02001633        20.624        32.880         0.478         0.030         0.221
  YS02163601YS02164001        58.691        92.740         1.373         0.100         0.673
  YS02164001YS02001641        58.320        92.153         1.353         0.098         0.661
  YS02001641YS02001644        58.684        92.743         1.350         0.098         0.658
  YS02001647YS02001649        93.365       147.094         2.032         0.145         0.980
  YS02006553YS02006556       135.027       219.323         4.524         0.430         2.504
  YS02006556YS02006558       134.989       219.245         4.492         0.425         2.483
  YSB6556YSB1171               5.717        10.140         0.185         0.019         0.104
  YS02001907YS02006553       134.955       219.216         4.519         0.429         2.501
  YS02006558YS02006561       183.882       299.466         5.707         0.518         3.098
  YS02001633YS02163601        59.244        93.537         1.354         0.097         0.658
  YS02001644YS02001647        94.119       148.191         2.050         0.146         0.989
  YS02001745YS02001748        32.942        53.451         0.753         0.045         0.364
  YS02001748YS02001751        32.978        53.566         0.786         0.049         0.386
  YS02001751YS02001754        32.562        52.957         0.798         0.052         0.396
  YS02001754YS02001757        33.615        54.674         0.970         0.075         0.507
  YS02001882YS02001884         0.435         0.675         0.014         0.001         0.008
  YS02001884YS02001887         1.687         2.704         0.049         0.005         0.026
  YS02001890YS02001895        68.210       111.700         1.453         0.114         0.733
  YS02001895YS02001898        68.083       111.518         1.447         0.114         0.729
  YS02001898YS02001901        67.978       111.371         1.444         0.113         0.728
  YS02001901YS02001904        68.057       111.531         1.465         0.116         0.741
  YS02001904YS02001907        68.856       112.855         1.560         0.128         0.801
  YS02001887YS02001890        69.049       112.997         1.517         0.122         0.772
  YS02001652YS02001649        30.381        49.030         0.749         0.055         0.356
  YS02001655YS02001652        31.129        50.168         0.770         0.057         0.366
  YS02001658YS02001655        30.651        49.319         0.685         0.046         0.310
  YS02001661YS02001658        31.545        50.605         0.707         0.047         0.320
  YS02001664YS02001661        32.811        52.449         0.739         0.049         0.334
  YSB1154YSB6556               5.205         9.327         0.122         0.011         0.064
  YSB1174YSB1171               3.969         7.139         0.128         0.013         0.072
  YSB1171HS02004479           11.456        20.120         0.485         0.053         0.283
  HS02004881HS02006253        10.313        18.603         0.307         0.027         0.162
  YS02001793JiankangQianchi       194.230       316.232         6.635         0.633         3.676
  YS02001757CaochengTiaoxuchi       232.785       375.412         5.393         0.385         2.651
  WSF200WS02003060           307.729       508.473        12.464         1.280         7.090
  1                         1708.666      2751.997       145.196        17.833        89.926
  CC-Pump-1                  105.338       170.739         2.405         0.171         1.179
  CC-Pump-2                   28.027        45.218         0.648         0.046         0.318
  JK-Pump-1                   82.044       132.602         2.807         0.267         1.553
  JK-Pump-2                   53.690        88.472         1.858         0.180         1.034
  XR-Pump-1                  333.331       533.870        31.424         3.916        19.603
  XR-Pump-2                  323.946       518.838        30.542         3.806        19.053
  XR-Pump-3                  291.288       466.536        27.459         3.422        17.129
  XR-Pump-4                  291.288       466.536        27.459         3.422        17.129
  

  Analysis begun on:  Sat Jul 10 21:38:02 2021
  Analysis ended on:  Sat Jul 10 21:38:04 2021
  Total elapsed time: 00:00:02