
  EPA STORM WATER MANAGEMENT MODEL - VERSION 5.1 (Build 5.3.0.dev0)
  --------------------------------------------------------------

  WARNING 04: minimum elevation drop used for Conduit WS02004404WS02004405
  WARNING 03: negative offset ignored for Link YS02001904YS02001907
  
  *********************************************************
  NOTE: The summary statistics displayed in this report are
  based on results found at every computational time step,  
  not just on results from each reporting time step.
  *********************************************************
  
  ****************
  Analysis Options
  ****************
  Flow Units ............... LPS
  Process Models:
    Rainfall/Runoff ........ YES
    RDII ................... NO
    Snowmelt ............... NO
    Groundwater ............ NO
    Flow Routing ........... YES
    Ponding Allowed ........ NO
    Water Quality .......... YES
  Infiltration Method ...... HORTON
  Flow Routing Method ...... DYNWAVE
  Surcharge Method ......... EXTRAN
  Starting Date ............ 08/28/2015 08:00:00
  Ending Date .............. 08/28/2015 15:50:00
  Antecedent Dry Days ...... 8.0
  Report Time Step ......... 00:01:00
  Wet Time Step ............ 00:01:00
  Dry Time Step ............ 00:01:00
  Routing Time Step ........ 5.00 sec
  Variable Time Step ....... YES
  Maximum Trials ........... 8
  Number of Threads ........ 4
  Head Tolerance ........... 0.001500 m
  
  
  **************************        Volume         Depth
  Runoff Quantity Continuity     hectare-m            mm
  **************************     ---------       -------
  Total Precipitation ......         1.959         4.290
  Evaporation Loss .........         0.000         0.000
  Infiltration Loss ........         0.456         0.999
  Surface Runoff ...........         1.067         2.337
  Final Storage ............         0.436         0.955
  Continuity Error (%) .....        -0.023
  
  
  **************************           COD            SS            TN            TP         NH4-N
  Runoff Quality Continuity             kg            kg            kg            kg            kg
  **************************    ----------    ----------    ----------    ----------    ----------
  Initial Buildup ..........     41378.656     70582.865      1804.177       168.684      1032.807
  Surface Buildup ..........        13.914        16.024         3.143         0.291         1.864
  Wet Deposition ...........         0.000         0.000         0.000         0.000         0.000
  Sweeping Removal .........         0.000         0.000         0.000         0.000         0.000
  Infiltration Loss ........        17.529        29.690         0.360         0.024         0.168
  BMP Removal ..............         0.000         0.000         0.000         0.000         0.000
  Surface Runoff ...........       546.583       901.156        11.363         0.724         5.341
  Remaining Buildup ........     40828.286     69667.764      1795.594       168.227      1029.161
  Continuity Error (%) .....         0.000         0.000         0.000         0.000         0.000
  
  
  **************************        Volume        Volume
  Flow Routing Continuity        hectare-m      10^6 ltr
  **************************     ---------     ---------
  Dry Weather Inflow .......         0.616         6.165
  Wet Weather Inflow .......         1.067        10.667
  Groundwater Inflow .......         0.000         0.000
  RDII Inflow ..............         0.000         0.000
  External Inflow ..........         0.102         1.024
  External Outflow .........         1.338        13.375
  Flooding Loss ............         0.166         1.657
  Evaporation Loss .........         0.000         0.000
  Exfiltration Loss ........         0.000         0.000
  Initial Stored Volume ....         0.076         0.761
  Final Stored Volume ......         0.468         4.683
  Continuity Error (%) .....        -5.903
  
  
  **************************           COD            SS            TN            TP         NH4-N
  Quality Routing Continuity            kg            kg            kg            kg            kg
  **************************    ----------    ----------    ----------    ----------    ----------
  Dry Weather Inflow .......      1541.201      2465.922       147.955        18.494        92.472
  Wet Weather Inflow .......       546.391       900.866        11.358         0.724         5.339
  Groundwater Inflow .......         0.000         0.000         0.000         0.000         0.000
  RDII Inflow ..............         0.000         0.000         0.000         0.000         0.000
  External Inflow ..........       183.418       293.469        17.608         2.201        11.005
  External Outflow .........      1730.434      2791.297       148.201        18.227        91.845
  Flooding Loss ............        72.391       119.896         2.130         0.190         1.145
  Exfiltration Loss ........         0.000         0.000         0.000         0.000         0.000
  Mass Reacted .............         0.000         0.000         0.000         0.000         0.000
  Initial Stored Mass ......         0.000         0.000         0.000         0.000         0.000
  Final Stored Mass ........       350.429       558.931        19.915         2.245        11.840
  Continuity Error (%) .....         5.185         5.195         3.774         3.534         3.663
  
  
  *************************
  Highest Continuity Errors
  *************************
  Node YS02001774 (33.49%)
  Node JK-storage (-30.72%)
  Node HS02004842 (29.47%)
  Node YS02001884 (23.89%)
  Node YSB1171 (7.44%)
  
  
  ***************************
  Time-Step Critical Elements
  ***************************
  Link WS02006252WS02006251 (38.33%)
  Link WS02006238WS02006235 (15.13%)
  Link YS02001793JiankangQianchi (13.55%)
  Link WS02006280WS02006229 (12.45%)
  Link WS02004404WS02004405 (3.90%)
  
  
  ********************************
  Highest Flow Instability Indexes
  ********************************
  Link WS02006113WS02006111 (56)
  Link WS02006111WS02006112 (18)
  Link YS02164001YS02001641 (11)
  Link YS02001641YS02001644 (10)
  Link YS02001765YS02001762 (10)
  
  
  *************************
  Routing Time Step Summary
  *************************
  Minimum Time Step           :     0.50 sec
  Average Time Step           :     1.87 sec
  Maximum Time Step           :     5.00 sec
  Percent in Steady State     :    -0.00
  Average Iterations per Step :     2.56
  Percent Not Converging      :     3.13
  
  
  ***************************
  Subcatchment Runoff Summary
  ***************************
  
  ------------------------------------------------------------------------------------------------------------------------------
                            Total      Total      Total      Total     Imperv       Perv      Total       Total     Peak  Runoff
                           Precip      Runon       Evap      Infil     Runoff     Runoff     Runoff      Runoff   Runoff   Coeff
  Subcatchment                 mm         mm         mm         mm         mm         mm         mm    10^6 ltr      LPS
  ------------------------------------------------------------------------------------------------------------------------------
  sub0                       4.29       0.00       0.00       0.30       3.95       0.00       3.95        0.00     1.39   0.920
  sub1                       4.29       0.00       0.00       0.47       3.73       0.00       3.73        0.02     7.51   0.870
  sub2                       4.29       0.00       0.00       1.59       2.63       0.00       2.63        0.02     6.61   0.612
  sub3                       4.29       0.00       0.00       1.59       2.59       0.00       2.59        0.06    13.46   0.604
  sub4                       4.29       0.00       0.00       0.47       3.60       0.00       3.60        0.08    14.90   0.839
  sub5                       4.29       0.00       0.00       0.30       3.90       0.00       3.90        0.04    13.35   0.909
  sub7                       4.29       0.00       0.00       0.39       3.84       0.00       3.84        0.01     4.69   0.896
  sub8                       4.29       0.00       0.00       0.39       3.84       0.00       3.84        0.02     8.31   0.894
  sub9                       4.29       0.00       0.00       0.39       3.83       0.00       3.83        0.02     6.16   0.894
  sub10                      4.29       0.00       0.00       0.34       3.86       0.00       3.86        0.04    13.34   0.901
  sub11                      4.29       0.00       0.00       0.34       3.88       0.00       3.88        0.05    15.62   0.905
  sub12                      4.29       0.00       0.00       0.56       3.69       0.00       3.69        0.03    13.04   0.859
  sub14                      4.29       0.00       0.00       0.39       3.83       0.00       3.83        0.04    12.04   0.893
  sub15                      4.29       0.00       0.00       1.29       2.94       0.00       2.94        0.05    16.35   0.686
  sub16                      4.29       0.00       0.00       1.42       2.84       0.00       2.84        0.03    11.52   0.661
  sub17                      4.29       0.00       0.00       1.37       2.88       0.00       2.88        0.02     9.34   0.670
  sub22                      4.29       0.00       0.00       1.84       2.41       0.00       2.41        0.15    53.41   0.561
  sub23                      4.29       0.00       0.00       1.59       2.66       0.00       2.66        0.13    45.41   0.620
  sub60                      4.29       0.00       0.00       0.51       2.55       0.00       2.55        0.77    67.93   0.595
  sub61                      4.29       0.00       0.00       0.73       2.74       0.00       2.74        0.85    87.60   0.640
  sub62                      4.29       0.00       0.00       0.34       2.94       0.00       2.94        0.90    88.79   0.685
  sub63                      4.29       0.00       0.00       1.24       2.45       0.00       2.45        0.74    82.69   0.571
  sub64                      4.29       0.00       0.00       0.64       2.44       0.00       2.44        0.74    64.40   0.569
  sub65                      4.29       0.00       0.00       0.56       2.47       0.00       2.47        0.76    65.23   0.576
  sub66                      4.29       0.00       0.00       1.24       2.13       0.00       2.13        0.65    59.52   0.497
  sub67                      4.29       0.00       0.00       0.34       3.24       0.00       3.24        1.00   117.02   0.756
  sub68                      4.29       0.00       0.00       0.60       2.92       0.00       2.92        0.90    97.55   0.681
  sub69                      4.29       0.00       0.00       0.64       3.17       0.00       3.17        0.74    99.90   0.738
  sub70                      4.29       3.23       0.00       2.56       3.86       0.00       3.86        0.88    75.49   0.513
  sub71                      4.29       0.00       0.00       0.34       2.81       0.00       2.81        0.66    61.36   0.654
  sub72                      4.29       0.00       0.00       0.30       1.96       0.00       1.96        0.40    28.35   0.457
  1                          4.29       3.76       0.00       1.30       3.91       0.46       4.37        1.03    70.57   0.543
  2                          4.29       0.00       0.00       2.87       0.96       0.14       1.09        0.44    60.95   0.255
  
  
  ****************************
  Subcatchment Washoff Summary
  ****************************
  
  ------------------------------------------------------------------------------------------
                                 COD            SS            TN            TP         NH4-N
  Subcatchment                    kg            kg            kg            kg            kg
  ------------------------------------------------------------------------------------------
  sub0                         0.587         1.078         0.010         0.001         0.005
  sub1                         2.317         4.270         0.044         0.003         0.021
  sub2                         1.314         2.325         0.030         0.002         0.014
  sub3                         3.127         5.440         0.071         0.005         0.032
  sub4                         4.947         8.975         0.104         0.006         0.050
  sub5                         5.305         9.656         0.093         0.007         0.045
  sub7                         1.256         2.374         0.024         0.002         0.011
  sub8                         1.896         3.647         0.039         0.002         0.019
  sub9                         1.596         3.028         0.032         0.002         0.015
  sub10                        4.441         8.203         0.081         0.006         0.039
  sub11                        4.475         8.407         0.084         0.006         0.040
  sub12                        3.781         7.012         0.068         0.005         0.032
  sub14                        3.372         6.336         0.065         0.004         0.031
  sub15                        3.904         6.978         0.078         0.005         0.036
  sub16                        2.527         4.542         0.049         0.004         0.023
  sub17                        2.301         4.093         0.043         0.003         0.020
  sub22                       11.548        20.227         0.228         0.017         0.105
  sub23                        7.213        13.133         0.164         0.010         0.074
  sub60                       34.884        56.853         0.767         0.043         0.365
  sub61                       44.727        72.770         0.888         0.057         0.425
  sub62                       47.318        78.405         1.005         0.058         0.479
  sub63                       33.885        54.569         0.757         0.050         0.343
  sub64                       40.707        63.804         0.799         0.055         0.377
  sub65                       41.744        65.716         0.827         0.055         0.392
  sub66                       25.119        39.904         0.584         0.036         0.268
  sub67                       71.428       117.679         1.318         0.092         0.633
  sub68                       50.778        83.724         1.047         0.066         0.495
  sub69                       48.498        81.473         0.961         0.063         0.455
  sub70                       71.127       119.138         1.544         0.101         0.708
  sub71                       31.353        52.338         0.716         0.038         0.341
  sub72                       19.163        29.409         0.388         0.025         0.186
  1                           33.913        57.263         0.768         0.050         0.346
  2                            5.658         8.996         0.194         0.011         0.080
  ------------------------------------------------------------------------------------------
  System                     666.207      1101.767        13.868         0.888         6.504
  
  
  ******************
  Node Depth Summary
  ******************
  
  ---------------------------------------------------------------------------------
                                 Average  Maximum  Maximum  Time of Max    Reported
                                   Depth    Depth      HGL   Occurrence   Max Depth
  Node                 Type       Meters   Meters   Meters  days hr:min      Meters
  ---------------------------------------------------------------------------------
  WS02001211           JUNCTION     0.68     0.79     5.63     0  05:13        0.79
  WS02001212           JUNCTION     0.40     0.51     5.57     0  05:12        0.51
  WS02001213           JUNCTION     0.62     0.76     5.52     0  05:11        0.76
  WS02003069           JUNCTION     0.42     0.59     5.17     0  05:10        0.59
  WS02003072           JUNCTION     0.48     0.64     5.02     0  05:11        0.64
  WS02003073           JUNCTION     0.29     0.40     4.46     0  05:12        0.40
  WS02003060           JUNCTION     0.37     0.52     5.45     0  05:10        0.52
  WS02003066           JUNCTION     0.21     0.30     5.85     0  05:04        0.30
  WS02003059           JUNCTION     0.68     0.81     5.50     0  05:11        0.81
  WS02003067           JUNCTION     0.52     0.70     6.02     0  05:03        0.70
  WS02004401           JUNCTION     0.61     0.86     6.86     0  05:15        0.86
  WS02004402           JUNCTION     0.64     0.88     6.84     0  05:16        0.88
  WS02004403           JUNCTION     0.67     0.90     6.83     0  05:16        0.90
  WS02004404           JUNCTION     0.74     0.97     6.82     0  05:16        0.97
  WS02004406           JUNCTION     0.75     0.96     6.79     0  05:16        0.96
  WS02004409           JUNCTION     0.42     0.67     6.44     0  05:03        0.67
  WS02004410           JUNCTION     0.44     0.69     6.41     0  05:03        0.69
  WS02004411           JUNCTION     0.46     0.70     6.38     0  05:03        0.70
  WS02004412           JUNCTION     0.48     0.70     6.34     0  05:04        0.70
  WS02004413           JUNCTION     0.64     0.86     6.33     0  05:04        0.86
  WS02004405           JUNCTION     0.74     0.96     6.81     0  05:16        0.96
  WS02006109           JUNCTION     0.68     0.99     7.61     0  04:44        0.99
  WS02006110           JUNCTION     0.68     0.93     7.52     0  04:44        0.93
  WS02006111           JUNCTION     0.19     0.29     7.00     0  04:45        0.29
  WS02006112           JUNCTION     0.77     1.06     6.94     0  05:16        1.05
  WS02006113           JUNCTION     0.29     0.46     7.35     0  04:55        0.46
  WS02006115           JUNCTION     0.49     0.76     6.90     0  05:15        0.76
  WS02006116           JUNCTION     0.58     0.84     6.88     0  05:15        0.84
  WS02006230           JUNCTION     0.63     1.13     7.88     0  04:44        1.13
  WS02006231           JUNCTION     0.41     0.87     8.00     0  04:44        0.87
  WS02006232           JUNCTION     0.54     1.06     8.10     0  04:44        1.06
  WS02006234           JUNCTION     0.46     1.08     8.23     0  04:44        1.07
  WS02006235           JUNCTION     0.49     1.16     8.33     0  04:44        1.15
  WS02006238           JUNCTION     0.52     1.19     8.34     0  04:44        1.19
  WS02006240           JUNCTION     0.43     1.14     8.43     0  04:44        1.13
  WS02006242           JUNCTION     0.48     1.22     8.49     0  04:43        1.21
  WS02006243           JUNCTION     0.38     1.13     8.55     0  04:43        1.12
  WS02006245           JUNCTION     0.36     1.11     8.60     0  04:43        1.10
  WS02006247           JUNCTION     0.37     1.13     8.63     0  04:43        1.12
  WS02006248           JUNCTION     0.33     1.08     8.67     0  04:43        1.07
  WS02006249           JUNCTION     0.36     1.09     8.69     0  04:43        1.09
  WS02006239           JUNCTION     0.48     1.18     8.39     0  04:44        1.17
  WS02006251           JUNCTION     0.34     1.29     8.96     0  04:43        1.11
  WS02006252           JUNCTION     0.25     0.85     9.09     0  04:43        0.67
  WS02006253           JUNCTION     0.37     1.36     9.01     0  04:43        1.14
  WS02006256           JUNCTION     1.20     2.35     9.28     0  00:00        2.35
  WS02004138           JUNCTION     0.15     0.20     7.45     0  00:00        0.19
  WS02004139           JUNCTION     0.62     0.74     5.65     0  05:13        0.74
  WS02004407           JUNCTION     0.19     0.30     6.61     0  05:00        0.30
  WS02006228           JUNCTION     0.67     1.03     7.68     0  04:44        1.03
  WS02006229           JUNCTION     0.64     1.03     7.73     0  04:44        1.03
  WS02006280           JUNCTION     0.05     0.14     8.42     0  02:13        0.14
  WS02006284           JUNCTION     0.34     0.48     8.88     0  02:13        0.48
  WS02006287           JUNCTION     0.07     0.21     9.17     0  02:13        0.21
  WSF200               JUNCTION     0.18     0.31     5.54     0  04:59        0.31
  HS02004901           JUNCTION     0.10     0.23    10.05     0  02:11        0.23
  HS02004881           JUNCTION     0.00     0.02     9.05     0  02:13        0.02
  HS02004876           JUNCTION     0.03     0.10     9.13     0  02:11        0.10
  HS02004870           JUNCTION     0.01     0.04     9.33     0  02:13        0.04
  HS02004862           JUNCTION     0.01     0.05     9.43     0  02:14        0.05
  HS02004856           JUNCTION     0.07     0.10     9.53     0  02:13        0.10
  HS02004852           JUNCTION     0.01     0.03     9.54     0  02:14        0.03
  HS02004848           JUNCTION     0.01     0.03     9.63     0  02:12        0.03
  HS02004842           JUNCTION     0.32     0.36     9.63     0  02:12        0.36
  HS02004837           JUNCTION     0.02     0.05     9.63     0  02:12        0.05
  HS02004830           JUNCTION     0.03     0.06     9.53     0  02:12        0.06
  HS02004824           JUNCTION     0.02     0.04     9.44     0  02:14        0.04
  HS02004817           JUNCTION     0.41     0.52     9.37     0  02:14        0.52
  HS02004807           JUNCTION     0.10     0.20     9.37     0  02:13        0.20
  HS02004802           JUNCTION     0.14     0.24     9.37     0  02:13        0.24
  HS02004799           JUNCTION     0.09     0.26     9.47     0  02:12        0.26
  HS02004792           JUNCTION     0.02     0.10     9.62     0  02:11        0.10
  HS02004788           JUNCTION     0.02     0.07     9.97     0  02:12        0.07
  HS02004785           JUNCTION     0.03     0.13    10.03     0  02:12        0.13
  HS02004777           JUNCTION     0.12     0.25    10.05     0  02:11        0.25
  HS02004770           JUNCTION     0.09     0.22    10.05     0  02:11        0.22
  HS02004480           JUNCTION     0.05     0.20     9.44     0  02:12        0.20
  HS02004479           JUNCTION     0.09     0.24     9.44     0  02:12        0.24
  HS02004478           JUNCTION     0.04     0.13     9.35     0  02:13        0.13
  YS02001745           JUNCTION     0.30     0.53     8.04     0  04:36        0.53
  YS02001748           JUNCTION     0.65     0.97     8.04     0  04:35        0.97
  YS02001751           JUNCTION     0.82     1.16     8.04     0  04:36        1.16
  YS02001754           JUNCTION     1.05     1.44     8.04     0  04:37        1.43
  YS02001762           JUNCTION     1.24     1.65     8.05     0  04:39        1.64
  YS02001765           JUNCTION     1.20     1.60     8.05     0  04:39        1.59
  YS02001767           JUNCTION     1.16     1.57     8.06     0  04:39        1.55
  YS02001770           JUNCTION     1.16     1.57     8.06     0  04:39        1.55
  YS02001774           JUNCTION     1.22     1.64     8.06     0  04:39        1.62
  YS02001779           JUNCTION     0.98     1.38     8.06     0  04:39        1.36
  YS02001882           JUNCTION     0.24     0.44     7.15     0  02:40        0.43
  YS02001884           JUNCTION     0.33     0.53     7.15     0  02:40        0.53
  YS02001759           JUNCTION     1.28     1.68     8.05     0  04:39        1.68
  YS02001887           JUNCTION     0.41     0.61     7.15     0  02:40        0.61
  YS02001890           JUNCTION     0.44     0.64     7.15     0  02:40        0.64
  YS02001898           JUNCTION     0.22     0.40     7.13     0  02:40        0.40
  YS02001901           JUNCTION     0.33     0.52     7.13     0  02:40        0.52
  YS02001904           JUNCTION     0.31     0.50     7.13     0  02:41        0.50
  YS02001907           JUNCTION     0.63     0.84     7.13     0  02:41        0.84
  YS02001910           JUNCTION     0.43     0.62     7.13     0  02:41        0.62
  YS02001915           JUNCTION     0.23     0.41     7.13     0  02:41        0.41
  YS02001918           JUNCTION     0.07     0.09     7.16     0  03:02        0.09
  YS02001619           JUNCTION     0.78     1.13     8.06     0  04:41        1.12
  YS02001629           JUNCTION     1.11     1.50     8.05     0  04:36        1.50
  YS02001641           JUNCTION     1.21     1.61     8.05     0  04:32        1.61
  YS02001644           JUNCTION     1.22     1.61     8.05     0  04:31        1.61
  YS02001652           JUNCTION     1.07     1.45     8.05     0  04:41        1.45
  YS02001655           JUNCTION     0.84     1.20     8.05     0  04:37        1.19
  YS02001920           JUNCTION     0.16     0.20     7.21     0  03:02        0.20
  YS02001923           JUNCTION     0.06     0.08     7.34     0  03:01        0.08
  YS02001926           JUNCTION     0.13     0.17     7.61     0  03:01        0.17
  YS02001929           JUNCTION     0.06     0.08     7.78     0  03:01        0.08
  YS02001658           JUNCTION     0.59     0.91     8.05     0  04:37        0.90
  YS02001661           JUNCTION     0.40     0.64     8.05     0  04:36        0.64
  YS02001664           JUNCTION     0.06     0.13     8.06     0  04:37        0.13
  YS02001622           JUNCTION     0.80     1.15     8.05     0  04:36        1.15
  YS02001633           JUNCTION     1.20     1.60     8.05     0  04:36        1.59
  YS02001649           JUNCTION     1.25     1.66     8.05     0  04:37        1.65
  YS02001757           JUNCTION     1.37     1.78     8.05     0  04:32        1.78
  YS02001895           JUNCTION     0.21     0.40     7.14     0  02:40        0.40
  YS02001625           JUNCTION     1.07     1.45     8.05     0  04:36        1.45
  YS02163301           JUNCTION     1.14     1.54     8.05     0  04:36        1.53
  YS02163601           JUNCTION     1.25     1.65     8.05     0  04:36        1.65
  YS02164001           JUNCTION     1.19     1.59     8.05     0  04:36        1.59
  YS02001647           JUNCTION     1.05     1.44     8.05     0  04:36        1.43
  YSB1154              JUNCTION     0.23     0.38     9.44     0  02:12        0.38
  YSB6556              JUNCTION     0.12     0.27     9.44     0  02:12        0.27
  YSB1174              JUNCTION     0.18     0.33     9.44     0  02:12        0.33
  YSB1171              JUNCTION     0.38     0.54     9.44     0  02:12        0.54
  YS02006553           JUNCTION     0.64     0.85     7.13     0  02:41        0.85
  YS02006561           JUNCTION     0.12     0.21     6.87     0  02:41        0.21
  YS02006556           JUNCTION     0.61     0.82     7.13     0  02:41        0.82
  YS02006558           JUNCTION     0.66     0.86     7.13     0  02:41        0.86
  YS02001783           JUNCTION     0.20     0.40     6.54     0  03:23        0.39
  YS02001784           JUNCTION     0.23     0.45     6.52     0  03:22        0.44
  YS02001786           JUNCTION     0.20     0.46     6.49     0  03:22        0.44
  YS02001788           JUNCTION     0.14     0.48     6.46     0  03:21        0.45
  YS02001790           JUNCTION     0.18     0.91     6.56     0  03:21        0.80
  YS02001791           JUNCTION     0.12     1.02     6.49     0  03:19        0.94
  YS02001793           JUNCTION     0.10     1.56     6.39     0  03:21        1.55
  WSC                  OUTFALL      0.29     0.40     1.07     0  05:12        0.40
  JK-storage           STORAGE      1.23     5.58     6.38     0  03:20        5.58
  CC-storage           STORAGE      0.68     1.03     8.03     0  04:35        1.03
  XR-storage           STORAGE      2.56     5.93     3.93     0  07:06        5.93
  
  
  *******************
  Node Inflow Summary
  *******************
  
  -------------------------------------------------------------------------------------------------
                                  Maximum  Maximum                  Lateral       Total        Flow
                                  Lateral    Total  Time of Max      Inflow      Inflow     Balance
                                   Inflow   Inflow   Occurrence      Volume      Volume       Error
  Node                 Type           LPS      LPS  days hr:min    10^6 ltr    10^6 ltr     Percent
  -------------------------------------------------------------------------------------------------
  WS02001211           JUNCTION      7.35   389.53     0  05:27       0.207        7.63       0.534
  WS02001212           JUNCTION      0.00   391.65     0  05:28           0        7.59       0.345
  WS02001213           JUNCTION      0.00   393.54     0  05:27           0        7.57       0.363
  WS02003069           JUNCTION      0.32   950.72     0  05:10     0.00902        13.5       0.264
  WS02003072           JUNCTION      0.00   950.72     0  05:11           0        13.4       0.318
  WS02003073           JUNCTION      1.82   952.54     0  05:11      0.0514        13.4       0.371
  WS02003060           JUNCTION     16.53   950.40     0  05:09       0.466        13.5       0.249
  WS02003066           JUNCTION      0.00   546.41     0  05:04           0        5.52       0.084
  WS02003059           JUNCTION      0.00   396.50     0  05:27           0        7.55       0.536
  WS02003067           JUNCTION      0.00   546.41     0  05:04           0        5.53       0.173
  WS02004401           JUNCTION      0.00   547.17     0  05:15           0        5.76       0.363
  WS02004402           JUNCTION      0.00   546.95     0  05:15           0        5.74       0.343
  WS02004403           JUNCTION      0.00   546.81     0  05:16           0        5.72       0.314
  WS02004404           JUNCTION      0.16   546.82     0  05:16     0.00457        5.71       0.238
  WS02004406           JUNCTION      0.00   546.87     0  05:16           0        5.68       0.584
  WS02004409           JUNCTION      0.00   546.50     0  05:00           0        5.64       0.292
  WS02004410           JUNCTION      0.00   546.45     0  05:02           0        5.62       0.334
  WS02004411           JUNCTION      0.00   546.43     0  05:02           0         5.6       0.345
  WS02004412           JUNCTION      0.00   546.42     0  05:03           0        5.58       0.374
  WS02004413           JUNCTION      0.00   546.41     0  05:03           0        5.56       0.555
  WS02004405           JUNCTION      0.04   546.81     0  05:16     0.00107         5.7       0.355
  WS02006109           JUNCTION      1.23   551.16     0  04:44      0.0347        5.85       0.296
  WS02006110           JUNCTION      0.00   551.28     0  04:44           0        5.83       0.304
  WS02006111           JUNCTION      0.00   572.03     0  05:15           0        5.81       0.061
  WS02006112           JUNCTION      9.34   554.64     0  04:45      0.0247        5.83       0.517
  WS02006113           JUNCTION      0.00   551.49     0  04:44           0        5.82       0.155
  WS02006115           JUNCTION      0.00   551.61     0  04:48           0         5.8       0.340
  WS02006116           JUNCTION      0.00   547.63     0  05:15           0        5.78       0.292
  WS02006230           JUNCTION     10.28   531.72     0  04:49        0.29           5       0.246
  WS02006231           JUNCTION      0.00   521.59     0  04:49           0        4.72       0.188
  WS02006232           JUNCTION      0.00   521.64     0  04:43           0        4.73       0.342
  WS02006234           JUNCTION      0.00   521.74     0  04:49           0        4.74       0.101
  WS02006235           JUNCTION      0.00   522.47     0  04:50           0         4.9       0.232
  WS02006238           JUNCTION      0.00   392.50     0  05:40           0        2.55       0.257
  WS02006240           JUNCTION      0.00   393.24     0  05:40           0        2.44       0.441
  WS02006242           JUNCTION      0.00   393.37     0  05:40           0        2.39       0.555
  WS02006243           JUNCTION      0.00   393.49     0  05:40           0        2.34       0.087
  WS02006245           JUNCTION      0.00   393.63     0  05:40           0        2.33       0.436
  WS02006247           JUNCTION      0.00   393.84     0  05:40           0        2.33       0.322
  WS02006248           JUNCTION      0.00   394.36     0  05:40           0        2.33       0.168
  WS02006249           JUNCTION      0.00   431.46     0  04:43           0        2.47       0.445
  WS02006239           JUNCTION      0.00   392.62     0  05:40           0        2.49       0.276
  WS02006251           JUNCTION      0.08   414.51     0  04:43     0.00217        2.51       0.321
  WS02006252           JUNCTION      0.00   400.00     0  04:40           0        2.34       0.018
  WS02006253           JUNCTION      1.39   125.53     0  04:41     0.00319        0.17       2.361
  WS02006256           JUNCTION      0.00   983.00     0  02:40           0        4.01      -0.027
  WS02004138           JUNCTION      0.00   380.00     0  00:00           0        7.47       0.077
  WS02004139           JUNCTION      0.32   395.85     0  00:00     0.00905        7.47       0.618
  WS02004407           JUNCTION      0.00   546.60     0  05:16           0        5.64       0.125
  WS02006228           JUNCTION      0.00   549.63     0  04:44           0        5.83       0.244
  WS02006229           JUNCTION      0.00   548.75     0  04:44           0        5.85       0.247
  WS02006280           JUNCTION      0.00   211.73     0  02:14           0       0.862       0.009
  WS02006284           JUNCTION      0.10   211.73     0  02:13      0.0027       0.863       0.131
  WS02006287           JUNCTION      0.00   211.61     0  02:13           0       0.861       0.084
  WSF200               JUNCTION      0.00   546.42     0  05:04           0        5.52       0.077
  HS02004901           JUNCTION     11.52    11.52     0  02:07      0.0297      0.0298       6.256
  HS02004881           JUNCTION      4.69    40.21     0  02:12      0.0129       0.136       0.056
  HS02004876           JUNCTION      7.51    35.84     0  02:13      0.0248       0.123       0.424
  HS02004870           JUNCTION      8.31    28.56     0  02:13      0.0245      0.0986       0.108
  HS02004862           JUNCTION      6.81    20.90     0  02:13      0.0301      0.0743       0.223
  HS02004856           JUNCTION      6.16    14.18     0  02:12      0.0184      0.0456       3.251
  HS02004852           JUNCTION      0.00     8.48     0  02:13           0      0.0273       0.180
  HS02004848           JUNCTION     13.46    13.46     0  02:14      0.0583      0.0583       0.074
  HS02004842           JUNCTION      0.00     5.42     0  02:23           0      0.0441      41.792
  HS02004837           JUNCTION     19.69    24.38     0  02:11       0.222       0.253       0.323
  HS02004830           JUNCTION      0.15    24.51     0  02:12     0.00423       0.243       0.509
  HS02004824           JUNCTION     14.95    39.32     0  02:14      0.0765       0.318       0.170
  HS02004817           JUNCTION      0.60    39.91     0  02:14      0.0169       0.335       5.237
  HS02004807           JUNCTION     15.62    54.09     0  02:14      0.0451       0.363       1.177
  HS02004802           JUNCTION      0.00    54.35     0  02:15           0       0.359       1.141
  HS02004799           JUNCTION     12.04   134.32     0  02:11      0.0365       0.444       0.526
  HS02004792           JUNCTION     53.69   122.62     0  02:11        0.16       0.408       0.102
  HS02004788           JUNCTION     18.02    71.37     0  02:11      0.0977        0.25       0.157
  HS02004785           JUNCTION      0.15    53.90     0  02:11     0.00423       0.154       0.312
  HS02004777           JUNCTION      0.03    54.31     0  02:09    0.000846       0.154       3.475
  HS02004770           JUNCTION     45.41    55.68     0  02:08       0.127       0.155       2.039
  HS02004480           JUNCTION      0.00   158.28     0  02:12           0       0.518       0.137
  HS02004479           JUNCTION      0.00    24.54     0  02:13           0      0.0857       0.858
  HS02004478           JUNCTION      0.00   211.58     0  02:13           0       0.861       0.071
  YS02001745           JUNCTION     67.93   133.43     0  03:56       0.774        0.79       0.576
  YS02001748           JUNCTION      0.04   169.64     0  03:55     0.00127       0.793       2.158
  YS02001751           JUNCTION      0.01   163.68     0  03:43     0.00031       0.761       2.930
  YS02001754           JUNCTION      0.26    88.49     0  03:45     0.00733        0.74       3.404
  YS02001762           JUNCTION      0.00   116.20     0  02:53           0        0.83       2.667
  YS02001765           JUNCTION      0.00   102.52     0  02:54           0       0.832       2.998
  YS02001767           JUNCTION      0.54   139.38     0  02:55      0.0151       0.853       4.397
  YS02001770           JUNCTION     88.95   140.55     0  02:54       0.907       0.926       3.628
  YS02001774           JUNCTION      0.00    60.37     0  02:54           0       0.077      50.343
  YS02001779           JUNCTION      0.01    57.81     0  02:54    0.000141      0.0324      92.183
  YS02001882           JUNCTION      0.00     3.72     0  02:04           0     0.00496      48.862
  YS02001884           JUNCTION      0.00    11.67     0  02:05           0      0.0199      31.390
  YS02001759           JUNCTION     87.64   199.32     0  02:52       0.847        1.64       1.466
  YS02001887           JUNCTION    117.47   117.47     0  02:31        1.01        1.02       0.693
  YS02001890           JUNCTION      0.00   116.36     0  02:33           0           1       0.779
  YS02001898           JUNCTION      0.00   115.74     0  02:36           0       0.988       0.211
  YS02001901           JUNCTION      0.00   115.57     0  02:38           0       0.988       0.552
  YS02001904           JUNCTION      0.00   115.19     0  02:38           0       0.986       0.512
  YS02001907           JUNCTION      0.00   206.31     0  02:42           0        2.11       1.047
  YS02001910           JUNCTION      0.00    92.25     0  02:50           0        1.14       0.890
  YS02001915           JUNCTION     61.38    91.67     0  02:47       0.663        1.14       0.389
  YS02001918           JUNCTION      0.00    31.28     0  03:02           0       0.478       0.227
  YS02001619           JUNCTION     59.52    59.52     0  02:43       0.654       0.654       1.776
  YS02001629           JUNCTION      0.00    95.96     0  02:59           0       0.576       4.952
  YS02001641           JUNCTION      0.00   136.98     0  02:51           0        1.24       1.776
  YS02001644           JUNCTION     64.44   196.99     0  02:49       0.743        1.95       1.375
  YS02001652           JUNCTION      0.00    99.59     0  02:40           0       0.696       3.525
  YS02001655           JUNCTION      0.15   145.60     0  02:50     0.00434        0.72       3.409
  YS02001920           JUNCTION      2.87    31.28     0  03:01      0.0809        0.48       0.415
  YS02001923           JUNCTION      0.04    28.42     0  03:01     0.00106       0.399       0.072
  YS02001926           JUNCTION      0.05    28.39     0  03:01     0.00147         0.4       0.519
  YS02001929           JUNCTION     28.35    28.35     0  03:01       0.399       0.399       0.070
  YS02001658           JUNCTION      0.00   108.49     0  04:01           0       0.737       2.375
  YS02001661           JUNCTION      0.00    82.69     0  02:32           0       0.744       1.157
  YS02001664           JUNCTION     82.69    82.69     0  02:32       0.741       0.741       0.012
  YS02001622           JUNCTION      0.00    83.13     0  02:52           0       0.642       4.967
  YS02001633           JUNCTION     65.43   132.58     0  02:50       0.765         1.3       2.564
  YS02001649           JUNCTION      0.00   292.87     0  02:57           0        2.55       1.511
  YS02001757           JUNCTION      0.00   484.38     0  02:52           0        4.81       1.965
  YS02001895           JUNCTION      0.00   115.93     0  02:34           0       0.992       0.369
  YS02001625           JUNCTION      0.00    81.30     0  02:50           0       0.612       6.801
  YS02163301           JUNCTION      0.00    78.05     0  02:48           0       0.558       4.612
  YS02163601           JUNCTION      0.11   138.65     0  02:51      0.0031        1.26       2.480
  YS02164001           JUNCTION      0.00   138.96     0  02:51           0        1.24       1.726
  YS02001647           JUNCTION      0.00   197.14     0  02:47           0        1.91       1.536
  YSB1154              JUNCTION     13.35    13.35     0  02:10      0.0442      0.0454       3.283
  YSB6556              JUNCTION      0.00    13.18     0  02:12           0      0.0464       2.757
  YSB1174              JUNCTION     13.04    13.04     0  02:06      0.0322      0.0331       4.038
  YSB1171              JUNCTION      0.00    24.56     0  02:11           0       0.085       8.035
  YS02006553           JUNCTION      0.00   206.39     0  02:44           0         2.1       0.680
  YS02006561           JUNCTION      0.00   303.52     0  02:41           0        2.97       0.021
  YS02006556           JUNCTION      0.00   206.48     0  02:44           0         2.1       0.490
  YS02006558           JUNCTION     98.43   303.53     0  02:41       0.923           3       0.149
  YS02001783           JUNCTION      0.00   303.52     0  02:41           0        2.97       0.050
  YS02001784           JUNCTION      1.06   304.59     0  02:41      0.0299           3       0.082
  YS02001786           JUNCTION      0.06   304.63     0  02:42     0.00159           3       0.080
  YS02001788           JUNCTION      0.07   304.69     0  02:42       0.002           3       0.047
  YS02001790           JUNCTION      0.15   390.01     0  03:24     0.00437           3       0.041
  YS02001791           JUNCTION      0.00   396.85     0  03:25           0           3       0.029
  YS02001793           JUNCTION      0.00   474.00     0  03:27           0           3       0.015
  WSC                  OUTFALL       0.00   952.54     0  05:12           0        13.4       0.000
  JK-storage           STORAGE       0.00   541.69     0  03:28           0        3.15     -23.500
  CC-storage           STORAGE       0.00   481.61     0  02:48           0        4.72       1.064
  XR-storage           STORAGE     322.11   322.11     0  02:39         7.1         7.7      -1.341
  
  
  **********************
  Node Surcharge Summary
  **********************
  
  Surcharging occurs when water rises above the top of the highest conduit.
  ---------------------------------------------------------------------
                                               Max. Height   Min. Depth
                                   Hours       Above Crown    Below Rim
  Node                 Type      Surcharged         Meters       Meters
  ---------------------------------------------------------------------
  WS02006109           JUNCTION        0.86          0.169        1.651
  WS02006110           JUNCTION        0.57          0.021        1.829
  WS02006112           JUNCTION        0.55          0.061        1.619
  WS02006230           JUNCTION        0.55          0.051        1.519
  WS02006231           JUNCTION        0.60          0.164        1.366
  WS02006232           JUNCTION        1.07          0.364        1.116
  WS02006234           JUNCTION        0.65          0.357        0.883
  WS02006235           JUNCTION        0.79          0.454        0.836
  WS02006238           JUNCTION        0.92          0.474        0.956
  WS02006240           JUNCTION        0.82          0.427        0.963
  WS02006242           JUNCTION        1.10          0.487        0.333
  WS02006243           JUNCTION        0.87          0.423        0.347
  WS02006245           JUNCTION        0.86          0.403        0.447
  WS02006247           JUNCTION        0.93          0.422        0.338
  WS02006248           JUNCTION        0.81          0.361        0.019
  WS02006249           JUNCTION        0.89          0.390        0.000
  WS02006239           JUNCTION        0.80          0.436        0.854
  WS02006251           JUNCTION        0.53          0.261        0.919
  WS02006252           JUNCTION        1.47          0.452        0.648
  WS02006253           JUNCTION        0.54          0.321        2.159
  WS02006256           JUNCTION        6.32          2.050        0.000
  WS02006228           JUNCTION        0.81          0.203        1.997
  YS02001751           JUNCTION        2.78          0.165        1.035
  YS02001754           JUNCTION        4.35          0.386        0.764
  YS02001762           JUNCTION        5.12          0.650        0.500
  YS02001765           JUNCTION        4.93          0.603        0.497
  YS02001767           JUNCTION        4.82          0.568        0.462
  YS02001770           JUNCTION        4.71          0.537        0.383
  YS02001774           JUNCTION        5.05          0.641        0.409
  YS02001779           JUNCTION        4.28          0.378        0.302
  YS02001759           JUNCTION        5.22          0.682        0.528
  YS02001619           JUNCTION        1.86          0.128        0.482
  YS02001629           JUNCTION        1.87          0.124        0.346
  YS02001641           JUNCTION        5.01          0.611        0.489
  YS02001644           JUNCTION        5.02          0.614        0.306
  YS02001652           JUNCTION        4.44          0.422        0.708
  YS02001655           JUNCTION        3.31          0.200        1.000
  YS02001622           JUNCTION        2.27          0.151        0.469
  YS02001633           JUNCTION        4.88          0.577        0.483
  YS02001649           JUNCTION        5.16          0.655        0.395
  YS02001757           JUNCTION        5.40          0.784        0.426
  YS02001625           JUNCTION        4.51          0.450        0.330
  YS02163301           JUNCTION        4.76          0.535        0.495
  YS02163601           JUNCTION        5.15          0.651        0.429
  YS02164001           JUNCTION        4.93          0.590        0.510
  YS02001647           JUNCTION        4.48          0.435        0.465
  YS02001790           JUNCTION        0.01          0.111        1.046
  YS02001791           JUNCTION        0.08          0.222        1.698
  YS02001793           JUNCTION        0.16          0.558        2.042
  
  
  *********************
  Node Flooding Summary
  *********************
  
  Flooding refers to all water that overflows a node, whether it ponds or not.
  --------------------------------------------------------------------------
                                                             Total   Maximum
                                 Maximum   Time of Max       Flood    Ponded
                        Hours       Rate    Occurrence      Volume     Depth
  Node                 Flooded       LPS   days hr:min    10^6 ltr    Meters
  --------------------------------------------------------------------------
  WS02006249              0.51    111.24      0  04:43       0.130     0.000
  WS02006256              2.20    764.29      0  04:41       1.526     0.000
  
  
  **********************
  Storage Volume Summary
  **********************
  
  --------------------------------------------------------------------------------------------------
                         Average     Avg  Evap Exfil       Maximum     Max    Time of Max    Maximum
                          Volume    Pcnt  Pcnt  Pcnt        Volume    Pcnt     Occurrence    Outflow
  Storage Unit           1000 m3    Full  Loss  Loss       1000 m3    Full    days hr:min        LPS
  --------------------------------------------------------------------------------------------------
  JK-storage               0.062      21     0     0         0.280      96       0  03:20     983.00
  CC-storage               1.909      12     0     0         2.876      18       0  04:35     400.00
  XR-storage               0.307      33     0     0         0.712      77       0  07:06     380.00
  
  
  ***********************
  Outfall Loading Summary
  ***********************
  
  ---------------------------------------------------------------------------------------------------------------------------------
                         Flow       Avg       Max       Total         Total         Total         Total         Total         Total
                         Freq      Flow      Flow      Volume           COD            SS            TN            TP         NH4-N
  Outfall Node           Pcnt       LPS       LPS    10^6 ltr            kg            kg            kg            kg            kg
  ---------------------------------------------------------------------------------------------------------------------------------
  WSC                   99.97    544.88    952.54      13.375      1730.460      2791.336       148.205        18.228        91.847
  ---------------------------------------------------------------------------------------------------------------------------------
  System                99.97    544.88    952.54      13.375      1730.460      2791.336       148.205        18.228        91.847
  
  
  ********************
  Link Flow Summary
  ********************
  
  -----------------------------------------------------------------------------
                                 Maximum  Time of Max   Maximum    Max/    Max/
                                  |Flow|   Occurrence   |Veloc|    Full    Full
  Link                 Type          LPS  days hr:min     m/sec    Flow   Depth
  -----------------------------------------------------------------------------
  WS02003066WSF200     CONDUIT    546.42     0  05:04      2.77    0.09    0.23
  WS02006287WS02006284 CONDUIT    211.63     0  02:13      1.64    0.10    0.22
  WS02006284WS02006280 CONDUIT    211.73     0  02:14      1.88    0.09    0.20
  WS02006280WS02006229 CONDUIT    211.74     0  02:14      3.02    0.05    0.14
  WS02006229WS02006228 CONDUIT    549.63     0  04:44      1.09    1.82    1.00
  WS02006256WS02006235 CONDUIT    288.92     0  00:00      4.23    3.06    1.00
  WS02006253WS02006251 CONDUIT    124.16     0  04:41      0.49    0.37    1.00
  WS02006252WS02006251 CONDUIT    404.75     0  04:43      3.22    1.49    1.00
  WS02006251WS02006249 CONDUIT    431.46     0  04:43      1.12    1.24    1.00
  WS02006249WS02006248 CONDUIT    394.36     0  05:40      1.14    2.16    1.00
  WS02006248WS02006247 CONDUIT    393.84     0  05:40      1.11    0.86    1.00
  WS02006247WS02006245 CONDUIT    393.63     0  05:40      1.08    3.12    1.00
  WS02006245WS02006243 CONDUIT    393.49     0  05:40      1.10    1.16    1.00
  WS02006243WS02006242 CONDUIT    393.37     0  05:40      1.02    0.84    1.00
  WS02006242WS02006240 CONDUIT    393.24     0  05:40      1.02    1.56    1.00
  WS02006240WS02006239 CONDUIT    392.62     0  05:40      1.02    1.24    1.00
  WS02006239WS02006238 CONDUIT    392.50     0  05:40      1.02    1.26    1.00
  WS02006238WS02006235 CONDUIT    393.25     0  05:40      1.45    0.88    1.00
  WS02006235WS02006234 CONDUIT    521.74     0  04:49      1.36    5.50    1.00
  WS02006234WS02006232 CONDUIT    521.64     0  04:43      1.39    1.06    1.00
  WS02006232WS02006231 CONDUIT    521.59     0  04:49      1.36    1.09    1.00
  WS02006231WS02006230 CONDUIT    521.44     0  04:49      1.40    7.91    1.00
  WS02006230WS02006229 CONDUIT    533.82     0  04:44      1.39   11.88    1.00
  WS02006228WS02006109 CONDUIT    549.93     0  04:44      1.09    2.40    1.00
  WS02006116WS02004401 CONDUIT    547.17     0  05:15      1.00    0.75    0.85
  WS02006115WS02006116 CONDUIT    547.63     0  05:15      1.02    0.70    0.77
  WS02006113WS02006111 CONDUIT    572.03     0  05:15      2.48    0.69    0.47
  WS02006112WS02006115 CONDUIT    551.61     0  04:48      0.82    0.33    0.87
  WS02006111WS02006112 CONDUIT    554.56     0  04:45      1.60    0.26    0.68
  WS02006110WS02006113 CONDUIT    551.49     0  04:44      1.30    0.50    0.79
  WS02006109WS02006110 CONDUIT    551.28     0  04:44      1.10    1.06    1.00
  WS02004411WS02004412 CONDUIT    546.42     0  05:03      0.93    0.78    0.70
  WS02004401WS02004402 CONDUIT    546.95     0  05:15      1.00    0.66    0.87
  WS02004413WS02003067 CONDUIT    546.41     0  05:04      1.12    0.23    0.60
  WS02004412WS02004413 CONDUIT    546.41     0  05:03      0.83    0.37    0.78
  WS02004410WS02004411 CONDUIT    546.43     0  05:02      0.94    0.75    0.69
  WS02004409WS02004410 CONDUIT    546.45     0  05:02      1.03    0.71    0.68
  WS02004407WS02004409 CONDUIT    546.50     0  05:00      1.56    0.19    0.49
  WS02004406WS02004407 CONDUIT    546.60     0  05:16      1.05    0.24    0.63
  WS02004405WS02004406 CONDUIT    546.87     0  05:16      1.10    1.08    0.96
  WS02004404WS02004405 CONDUIT    546.77     0  05:16      1.15    5.36    0.97
  WS02004403WS02004404 CONDUIT    546.66     0  05:16      0.98    0.40    0.93
  WS02004402WS02004403 CONDUIT    546.81     0  05:16      1.02    0.79    0.89
  WS02004139WS02001211 CONDUIT    382.18     0  05:27      0.90    0.48    0.60
  WS02004138WS02004139 CONDUIT    395.52     0  00:00      3.64    0.08    0.44
  WS02003067WS02003066 CONDUIT    546.41     0  05:04      1.22    0.18    0.42
  WS02001213WS02003059 CONDUIT    396.50     0  05:27      0.89    0.65    0.78
  WS02001212WS02001213 CONDUIT    393.54     0  05:27      1.32    0.61    0.48
  WS02001211WS02001212 CONDUIT    391.65     0  05:28      0.78    0.30    0.65
  WS02003072WS02003073 CONDUIT    950.72     0  05:11      1.73    2.05    0.49
  WS02003069WS02003072 CONDUIT    950.72     0  05:11      1.63    0.46    0.51
  WS02003060WS02003069 CONDUIT    950.40     0  05:10      1.87    0.37    0.46
  WS02003059WS02003060 CONDUIT    400.55     0  05:26      0.95    0.26    0.67
  HS02004901HS02004770 CONDUIT     10.62     0  02:10      0.05    0.04    0.32
  HS02004876HS02004881 CONDUIT     35.94     0  02:13      0.57    0.38    0.09
  HS02004870HS02004876 CONDUIT     28.53     0  02:13      0.40    0.02    0.10
  HS02004842HS02004848 CONDUIT      5.42     0  02:23      0.03    0.00    0.27
  HS02004837HS02004842 CONDUIT      5.65     0  02:23      0.42    0.00    0.29
  HS02004830HS02004837 CONDUIT     24.36     0  02:12      0.45    0.02    0.08
  HS02004824HS02004830 CONDUIT     24.50     0  02:13      0.49    0.03    0.07
  HS02004817HS02004824 CONDUIT     39.31     0  02:14      0.17    0.02    0.40
  HS02004770HS02004777 CONDUIT     54.28     0  02:09      0.23    0.10    0.34
  HS02004799HS02004480 CONDUIT    134.07     0  02:11      0.60    0.17    0.32
  HS02004792HS02004799 CONDUIT    122.53     0  02:11      0.69    0.08    0.25
  HS02004788HS02004792 CONDUIT     71.29     0  02:12      0.84    0.05    0.12
  HS02004785HS02004788 CONDUIT     53.78     0  02:12      0.52    0.41    0.15
  HS02004777HS02004785 CONDUIT     53.75     0  02:11      0.28    0.07    0.27
  HS02004480HS02004478 CONDUIT    158.19     0  02:12      0.97    0.67    0.23
  HS02004479HS02004480 CONDUIT     24.83     0  02:14      0.15    0.02    0.31
  HS02004862HS02004870 CONDUIT     20.84     0  02:14      0.47    0.02    0.06
  HS02004848HS02004852 CONDUIT      8.48     0  02:13      0.32    0.01    0.04
  HS02004856HS02004862 CONDUIT     14.14     0  02:13      0.35    0.01    0.06
  HS02004852HS02004856 CONDUIT      8.42     0  02:14      0.13    0.01    0.09
  HS02004802HS02004478 CONDUIT     54.79     0  02:16      0.31    0.05    0.26
  HS02004478WS02006287 CONDUIT    211.61     0  02:13      1.33    0.06    0.18
  HS02004817HS02004807 CONDUIT     40.45     0  02:17      0.11    0.02    0.52
  HS02004807HS02004802 CONDUIT     54.35     0  02:15      0.26    0.10    0.30
  YS02001759YS02001757 CONDUIT    199.92     0  02:52      0.25    0.14    1.00
  YS02001762YS02001759 CONDUIT    115.07     0  02:52      0.17    0.13    1.00
  YS02001765YS02001762 CONDUIT    116.20     0  02:53      0.24    0.11    1.00
  YS02001770YS02001767 CONDUIT    138.85     0  02:55      0.30    0.55    1.00
  YS02001774YS02001770 CONDUIT     60.37     0  02:54      0.13    0.04    1.00
  YS02001779YS02001774 CONDUIT     57.81     0  02:54      0.08    0.03    1.00
  YS02001649YS02001757 CONDUIT    293.92     0  02:56      0.37    0.18    1.00
  YS02001767YS02001765 CONDUIT    102.52     0  02:54      0.27    0.13    1.00
  YS02006561YS02001783 CONDUIT    303.52     0  02:41      1.77    0.16    0.37
  YS02001783YS02001784 CONDUIT    303.53     0  02:41      1.22    0.42    0.52
  YS02001784YS02001785 CONDUIT    304.57     0  02:42      1.30    0.71    0.55
  YS02001788YS02001790 CONDUIT    389.86     0  03:24      1.86    0.29    0.79
  YS02001790YS02001791 CONDUIT    396.85     0  03:25      2.15    0.43    1.00
  YS02001791YS02001793 CONDUIT    474.00     0  03:27      4.35    0.20    1.00
  YS02001910YS02001907 CONDUIT     92.52     0  02:50      0.49    0.05    0.73
  YS02001786YS02001788 CONDUIT    304.62     0  02:42      1.74    0.59    0.56
  YS02001915YS02001910 CONDUIT     92.25     0  02:50      0.45    0.05    0.52
  YS02001918YS02001915 CONDUIT     31.27     0  03:02      0.44    0.02    0.25
  YS02001923YS02001920 CONDUIT     28.41     0  03:01      0.43    0.01    0.14
  YS02001926YS02001923 CONDUIT     28.38     0  03:01      0.48    0.04    0.13
  YS02001929YS02001926 CONDUIT     28.34     0  03:01      0.50    0.01    0.12
  YS02001920YS02001918 CONDUIT     31.28     0  03:02      0.45    0.03    0.14
  YS02001629YS02163301 CONDUIT     78.05     0  02:48      0.11    0.10    1.00
  YS02001619YS02001622 CONDUIT     83.13     0  02:52      0.65    0.12    1.00
  YS02001622YS02001625 CONDUIT     81.30     0  02:50      0.25    0.04    1.00
  YS02001625YS02001629 CONDUIT     95.96     0  02:59      0.25    0.05    1.00
  YS02163301YS02001633 CONDUIT     67.26     0  02:50      0.09    0.06    1.00
  YS02163601YS02164001 CONDUIT    138.96     0  02:51      0.18    0.12    1.00
  YS02164001YS02001641 CONDUIT    136.98     0  02:51      0.17    0.19    1.00
  YS02001641YS02001644 CONDUIT    132.62     0  02:49      0.17    0.43    1.00
  YS02001647YS02001649 CONDUIT    222.99     0  02:56      0.29    0.12    1.00
  YS02006553YS02006556 CONDUIT    206.48     0  02:44      0.30    0.18    0.81
  YS02006556YS02006558 CONDUIT    206.53     0  02:44      0.29    0.16    0.84
  YSB6556YSB1171       CONDUIT     13.46     0  02:15      0.06    0.01    0.58
  YS02001907YS02006553 CONDUIT    206.39     0  02:44      0.25    0.24    0.92
  YS02006558YS02006561 CONDUIT    303.52     0  02:41      2.27    0.67    0.48
  YS02001633YS02163601 CONDUIT    138.54     0  02:51      0.18    0.15    1.00
  YS02001644YS02001647 CONDUIT    197.14     0  02:47      0.27    0.12    1.00
  YS02001745YS02001748 CONDUIT    169.59     0  03:55      1.40    0.07    0.70
  YS02001748YS02001751 CONDUIT    163.67     0  03:43      1.09    0.08    0.98
  YS02001751YS02001754 CONDUIT     88.23     0  03:45      0.96    0.04    1.00
  YS02001754YS02001757 CONDUIT    121.76     0  02:51      0.33    0.05    1.00
  YS02001882YS02001884 CONDUIT      3.72     0  02:04      0.07    0.00    0.45
  YS02001884YS02001887 CONDUIT     11.67     0  02:05      0.05    0.02    0.55
  YS02001890YS02001895 CONDUIT    115.93     0  02:34      0.28    0.05    0.52
  YS02001895YS02001898 CONDUIT    115.74     0  02:36      0.46    0.20    0.38
  YS02001898YS02001901 CONDUIT    115.57     0  02:38      0.33    0.07    0.46
  YS02001901YS02001904 CONDUIT    115.19     0  02:38      0.29    0.18    0.51
  YS02001904YS02001907 CONDUIT    115.29     0  02:38      0.21    0.04    0.67
  YS02001887YS02001890 CONDUIT    116.36     0  02:33      0.24    0.20    0.60
  YS02001652YS02001649 CONDUIT    139.99     0  02:50      0.30    0.07    1.00
  YS02001655YS02001652 CONDUIT     99.59     0  02:40      1.01    0.05    1.00
  YS02001658YS02001655 CONDUIT    145.45     0  02:50      1.27    0.06    0.95
  YS02001661YS02001658 CONDUIT    108.49     0  04:01      1.44    0.04    0.74
  YS02001664YS02001661 CONDUIT     82.69     0  02:32      1.10    0.03    0.38
  YSB1154YSB6556       CONDUIT     13.18     0  02:12      0.19    0.02    0.47
  YSB1174YSB1171       CONDUIT     12.09     0  02:08      0.05    0.02    0.59
  YSB1171HS02004479    CONDUIT     24.54     0  02:13      0.54    0.02    0.45
  HS02004881HS02006253 CONDUIT     40.21     0  02:13      1.68    0.01    0.50
  YS02001793JiankangQianchi CONDUIT    541.69     0  03:28     13.25    0.04    1.00
  YS02001757CaochengTiaoxuchi CONDUIT    481.61     0  02:48      0.96    0.21    1.00
  WSF200WS02003060     CONDUIT    546.44     0  05:04      1.93    0.12    0.34
  1                    CONDUIT    952.54     0  05:12      3.28    0.33    0.40
  CC-Pump-1            PUMP       200.00     0  04:40              1.00
  CC-Pump-2            PUMP       200.00     0  04:40              1.00
  JK-Pump-1            PUMP       300.00     0  00:00              1.00
  JK-Pump-2            PUMP       683.00     0  02:40              1.00
  XR-Pump-1            PUMP        95.00     0  00:00              1.00
  XR-Pump-2            PUMP        95.00     0  00:00              1.00
  XR-Pump-3            PUMP        95.00     0  00:00              1.00
  XR-Pump-4            PUMP        95.00     0  00:00              1.00
  
  
  ***************************
  Flow Classification Summary
  ***************************
  
  -------------------------------------------------------------------------------------
                      Adjusted    ---------- Fraction of Time in Flow Class ---------- 
                       /Actual         Up    Down  Sub   Sup   Up    Down  Norm  Inlet 
  Conduit               Length    Dry  Dry   Dry   Crit  Crit  Crit  Crit  Ltd   Ctrl  
  -------------------------------------------------------------------------------------
  WS02003066WSF200        1.00   0.01  0.03  0.00  0.00  0.95  0.00  0.00  0.82  0.00
  WS02006287WS02006284    1.00   0.05  0.03  0.00  0.73  0.19  0.00  0.00  0.78  0.00
  WS02006284WS02006280    1.00   0.06  0.00  0.00  0.00  0.00  0.00  0.94  0.00  0.00
  WS02006280WS02006229    1.00   0.06  0.00  0.00  0.00  0.00  0.00  0.94  0.00  0.00
  WS02006229WS02006228    1.00   0.00  0.00  0.00  0.99  0.00  0.00  0.01  0.00  0.00
  WS02006256WS02006235    1.00   0.00  0.00  0.00  0.99  0.01  0.00  0.00  0.00  0.00
  WS02006253WS02006251    1.00   0.03  0.02  0.00  0.94  0.00  0.01  0.00  0.00  0.00
  WS02006252WS02006251    1.00   0.37  0.00  0.00  0.06  0.00  0.57  0.00  0.00  0.00
  WS02006251WS02006249    1.00   0.00  0.00  0.00  1.00  0.00  0.00  0.00  0.67  0.00
  WS02006249WS02006248    1.00   0.00  0.01  0.00  0.68  0.00  0.31  0.00  0.00  0.00
  WS02006248WS02006247    1.00   0.01  0.00  0.00  0.99  0.00  0.00  0.00  0.45  0.00
  WS02006247WS02006245    1.00   0.01  0.00  0.00  0.98  0.00  0.00  0.02  0.00  0.00
  WS02006245WS02006243    1.00   0.01  0.00  0.00  0.87  0.00  0.00  0.13  0.01  0.00
  WS02006243WS02006242    1.00   0.00  0.00  0.00  1.00  0.00  0.00  0.00  0.41  0.00
  WS02006242WS02006240    1.00   0.00  0.00  0.00  1.00  0.00  0.00  0.00  0.00  0.00
  WS02006240WS02006239    1.00   0.00  0.00  0.00  0.88  0.00  0.00  0.12  0.01  0.00
  WS02006239WS02006238    1.00   0.00  0.00  0.00  1.00  0.00  0.00  0.00  0.21  0.00
  WS02006238WS02006235    1.00   0.00  0.00  0.00  1.00  0.00  0.00  0.00  0.00  0.00
  WS02006235WS02006234    1.00   0.00  0.00  0.00  0.91  0.00  0.09  0.00  0.00  0.00
  WS02006234WS02006232    1.00   0.00  0.00  0.00  1.00  0.00  0.00  0.00  0.15  0.00
  WS02006232WS02006231    1.00   0.00  0.00  0.00  0.99  0.00  0.00  0.00  0.00  0.00
  WS02006231WS02006230    1.00   0.00  0.00  0.00  0.44  0.00  0.56  0.00  0.00  0.00
  WS02006230WS02006229    1.00   0.00  0.00  0.00  0.99  0.00  0.00  0.01  0.00  0.00
  WS02006228WS02006109    1.00   0.00  0.00  0.00  1.00  0.00  0.00  0.00  0.01  0.00
  WS02006116WS02004401    1.00   0.01  0.00  0.00  0.99  0.00  0.00  0.00  0.00  0.00
  WS02006115WS02006116    1.00   0.01  0.00  0.00  0.98  0.00  0.00  0.00  0.00  0.00
  WS02006113WS02006111    1.00   0.01  0.00  0.00  0.00  0.99  0.00  0.00  0.27  0.00
  WS02006112WS02006115    1.00   0.01  0.00  0.00  0.98  0.00  0.00  0.00  0.00  0.00
  WS02006111WS02006112    1.00   0.01  0.00  0.00  0.99  0.00  0.00  0.00  0.98  0.00
  WS02006110WS02006113    1.00   0.01  0.00  0.00  0.99  0.00  0.00  0.00  0.00  0.00
  WS02006109WS02006110    1.00   0.00  0.01  0.00  0.99  0.00  0.00  0.00  0.00  0.00
  WS02004411WS02004412    1.00   0.03  0.00  0.00  0.97  0.00  0.00  0.00  0.00  0.00
  WS02004401WS02004402    1.00   0.01  0.00  0.00  0.99  0.00  0.00  0.00  0.00  0.00
  WS02004413WS02003067    1.00   0.03  0.01  0.00  0.00  0.00  0.96  0.00  0.00  0.00
  WS02004412WS02004413    1.00   0.03  0.00  0.00  0.97  0.00  0.00  0.00  0.01  0.00
  WS02004410WS02004411    1.00   0.03  0.00  0.00  0.97  0.00  0.00  0.00  0.00  0.00
  WS02004409WS02004410    1.00   0.03  0.00  0.00  0.97  0.00  0.00  0.00  0.02  0.00
  WS02004407WS02004409    1.00   0.02  0.00  0.00  0.97  0.00  0.00  0.00  0.95  0.00
  WS02004406WS02004407    1.00   0.00  0.02  0.00  0.98  0.00  0.00  0.00  0.00  0.00
  WS02004405WS02004406    1.00   0.00  0.00  0.00  1.00  0.00  0.00  0.00  0.00  0.00
  WS02004404WS02004405    1.00   0.00  0.00  0.00  1.00  0.00  0.00  0.00  0.00  0.00
  WS02004403WS02004404    1.00   0.00  0.02  0.00  0.98  0.00  0.00  0.00  0.00  0.00
  WS02004402WS02004403    1.00   0.02  0.00  0.00  0.98  0.00  0.00  0.00  0.00  0.00
  WS02004139WS02001211    1.00   0.00  0.00  0.00  1.00  0.00  0.00  0.00  0.00  0.00
  WS02004138WS02004139    1.00   0.00  0.02  0.00  0.98  0.00  0.00  0.00  1.00  0.00
  WS02003067WS02003066    1.00   0.04  0.01  0.00  0.96  0.00  0.00  0.00  0.00  0.00
  WS02001213WS02003059    1.00   0.00  0.00  0.00  1.00  0.00  0.00  0.00  0.00  0.00
  WS02001212WS02001213    1.00   0.00  0.00  0.00  0.72  0.00  0.28  0.00  0.00  0.00
  WS02001211WS02001212    1.00   0.00  0.00  0.00  1.00  0.00  0.00  0.00  0.00  0.00
  WS02003072WS02003073    1.00   0.00  0.00  0.00  0.00  0.00  0.00  1.00  0.00  0.00
  WS02003069WS02003072    1.00   0.00  0.00  0.00  1.00  0.00  0.00  0.00  0.35  0.00
  WS02003060WS02003069    1.00   0.00  0.00  0.00  0.96  0.04  0.00  0.00  0.29  0.00
  WS02003059WS02003060    1.00   0.00  0.00  0.00  1.00  0.00  0.00  0.00  0.01  0.00
  HS02004901HS02004770    1.00   0.06  0.00  0.00  0.94  0.00  0.00  0.00  0.02  0.00
  HS02004876HS02004881    1.00   0.01  0.00  0.00  0.99  0.00  0.00  0.00  0.00  0.00
  HS02004870HS02004876    1.00   0.00  0.00  0.00  0.99  0.01  0.00  0.00  0.95  0.00
  HS02004842HS02004848    1.00   0.00  0.06  0.00  0.94  0.00  0.00  0.00  0.67  0.00
  HS02004837HS02004842    1.00   0.00  0.00  0.00  1.00  0.00  0.00  0.00  0.11  0.00
  HS02004830HS02004837    1.00   0.00  0.00  0.00  1.00  0.00  0.00  0.00  0.99  0.00
  HS02004824HS02004830    1.00   0.00  0.00  0.00  1.00  0.00  0.00  0.00  0.00  0.00
  HS02004817HS02004824    1.00   0.00  0.00  0.00  1.00  0.00  0.00  0.00  1.00  0.00
  HS02004770HS02004777    1.00   0.00  0.06  0.00  0.94  0.00  0.00  0.00  0.06  0.00
  HS02004799HS02004480    1.00   0.00  0.02  0.00  0.92  0.00  0.06  0.00  0.00  0.00
  HS02004792HS02004799    1.00   0.00  0.00  0.00  0.99  0.01  0.00  0.00  0.98  0.00
  HS02004788HS02004792    1.00   0.00  0.00  0.00  0.99  0.01  0.00  0.00  0.98  0.00
  HS02004785HS02004788    1.00   0.00  0.00  0.00  1.00  0.00  0.00  0.00  0.00  0.00
  HS02004777HS02004785    1.00   0.00  0.00  0.00  1.00  0.00  0.00  0.00  0.19  0.00
  HS02004480HS02004478    1.00   0.07  0.00  0.00  0.75  0.00  0.00  0.18  0.00  0.00
  HS02004479HS02004480    1.00   0.02  0.00  0.00  0.98  0.00  0.00  0.00  0.15  0.00
  HS02004862HS02004870    1.00   0.00  0.00  0.00  1.00  0.00  0.00  0.00  0.06  0.00
  HS02004848HS02004852    1.00   0.06  0.00  0.00  0.94  0.00  0.00  0.00  0.72  0.00
  HS02004856HS02004862    1.00   0.00  0.10  0.00  0.90  0.00  0.00  0.00  0.76  0.00
  HS02004852HS02004856    1.00   0.06  0.01  0.00  0.93  0.00  0.00  0.00  0.83  0.00
  HS02004802HS02004478    1.00   0.06  0.01  0.00  0.93  0.00  0.00  0.00  0.01  0.00
  HS02004478WS02006287    1.00   0.08  0.00  0.00  0.87  0.05  0.00  0.00  0.77  0.00
  HS02004817HS02004807    1.00   0.00  0.06  0.00  0.94  0.00  0.00  0.00  0.00  0.00
  HS02004807HS02004802    1.00   0.06  0.00  0.00  0.93  0.00  0.00  0.00  0.01  0.00
  YS02001759YS02001757    1.00   0.00  0.00  0.00  1.00  0.00  0.00  0.00  0.18  0.00
  YS02001762YS02001759    1.00   0.00  0.00  0.00  1.00  0.00  0.00  0.00  0.04  0.00
  YS02001765YS02001762    1.00   0.00  0.00  0.00  1.00  0.00  0.00  0.00  0.21  0.00
  YS02001770YS02001767    1.00   0.00  0.00  0.00  1.00  0.00  0.00  0.00  0.00  0.00
  YS02001774YS02001770    1.00   0.00  0.07  0.00  0.93  0.00  0.00  0.00  0.06  0.00
  YS02001779YS02001774    1.00   0.00  0.00  0.00  1.00  0.00  0.00  0.00  0.25  0.00
  YS02001649YS02001757    1.00   0.00  0.00  0.00  1.00  0.00  0.00  0.00  0.19  0.00
  YS02001767YS02001765    1.00   0.00  0.00  0.00  1.00  0.00  0.00  0.00  0.01  0.00
  YS02006561YS02001783    1.00   0.11  0.00  0.00  0.00  0.89  0.00  0.00  0.74  0.00
  YS02001783YS02001784    1.00   0.00  0.11  0.00  0.89  0.00  0.00  0.00  0.00  0.00
  YS02001784YS02001785    1.00   0.00  0.00  0.00  1.00  0.00  0.00  0.00  0.24  0.00
  YS02001788YS02001790    1.00   0.00  0.00  0.00  0.13  0.87  0.00  0.00  0.79  0.00
  YS02001790YS02001791    1.00   0.00  0.00  0.00  0.02  0.98  0.00  0.00  0.52  0.00
  YS02001791YS02001793    1.00   0.00  0.00  0.00  0.05  0.95  0.00  0.00  0.03  0.00
  YS02001910YS02001907    1.00   0.00  0.00  0.00  0.98  0.00  0.00  0.02  0.13  0.00
  YS02001786YS02001788    1.00   0.00  0.00  0.00  0.13  0.87  0.00  0.00  0.00  0.00
  YS02001915YS02001910    1.00   0.00  0.00  0.00  0.99  0.01  0.00  0.00  0.23  0.00
  YS02001918YS02001915    1.00   0.00  0.00  0.00  0.99  0.01  0.00  0.00  0.82  0.00
  YS02001923YS02001920    1.00   0.00  0.00  0.00  1.00  0.00  0.00  0.00  1.00  0.00
  YS02001926YS02001923    1.00   0.00  0.04  0.00  0.00  0.00  0.96  0.00  0.00  0.00
  YS02001929YS02001926    1.00   0.00  0.06  0.00  0.94  0.00  0.00  0.00  0.86  0.00
  YS02001920YS02001918    1.00   0.00  0.00  0.00  1.00  0.00  0.00  0.00  0.00  0.00
  YS02001629YS02163301    1.00   0.09  0.01  0.00  0.90  0.00  0.00  0.00  0.00  0.00
  YS02001619YS02001622    1.00   0.06  0.00  0.00  0.94  0.00  0.00  0.00  0.00  0.00
  YS02001622YS02001625    1.00   0.06  0.00  0.00  0.94  0.00  0.00  0.00  0.12  0.00
  YS02001625YS02001629    1.00   0.06  0.05  0.00  0.86  0.00  0.02  0.00  0.00  0.00
  YS02163301YS02001633    1.00   0.00  0.09  0.00  0.91  0.00  0.00  0.00  0.00  0.00
  YS02163601YS02164001    1.00   0.00  0.04  0.00  0.96  0.00  0.00  0.00  0.00  0.00
  YS02164001YS02001641    1.00   0.01  0.04  0.00  0.96  0.00  0.00  0.00  0.07  0.00
  YS02001641YS02001644    1.00   0.00  0.00  0.00  1.00  0.00  0.00  0.00  0.00  0.00
  YS02001647YS02001649    1.00   0.00  0.10  0.00  0.89  0.00  0.00  0.00  0.01  0.00
  YS02006553YS02006556    1.00   0.01  0.00  0.00  0.99  0.00  0.00  0.00  0.03  0.00
  YS02006556YS02006558    1.00   0.00  0.00  0.00  1.00  0.00  0.00  0.00  0.00  0.00
  YSB6556YSB1171          1.00   0.02  0.03  0.00  0.94  0.00  0.00  0.00  0.00  0.00
  YS02001907YS02006553    1.00   0.00  0.01  0.00  0.98  0.00  0.00  0.00  0.00  0.00
  YS02006558YS02006561    1.00   0.11  0.00  0.00  0.00  0.89  0.00  0.00  0.74  0.00
  YS02001633YS02163601    1.00   0.00  0.00  0.00  1.00  0.00  0.00  0.00  0.19  0.00
  YS02001644YS02001647    1.00   0.00  0.11  0.00  0.89  0.00  0.00  0.00  0.00  0.00
  YS02001745YS02001748    1.00   0.00  0.00  0.00  0.83  0.01  0.00  0.16  0.12  0.00
  YS02001748YS02001751    1.00   0.00  0.00  0.00  0.95  0.05  0.00  0.00  0.22  0.00
  YS02001751YS02001754    1.00   0.00  0.00  0.00  0.88  0.00  0.00  0.12  0.02  0.00
  YS02001754YS02001757    1.00   0.00  0.00  0.00  1.00  0.00  0.00  0.00  0.25  0.00
  YS02001882YS02001884    1.00   0.08  0.01  0.00  0.91  0.00  0.00  0.00  0.00  0.00
  YS02001884YS02001887    1.00   0.03  0.02  0.00  0.95  0.00  0.00  0.00  0.00  0.00
  YS02001890YS02001895    1.00   0.00  0.09  0.00  0.91  0.00  0.00  0.00  0.00  0.00
  YS02001895YS02001898    1.00   0.09  0.00  0.00  0.89  0.00  0.02  0.00  0.00  0.00
  YS02001898YS02001901    1.00   0.09  0.01  0.00  0.90  0.00  0.00  0.00  0.02  0.00
  YS02001901YS02001904    1.00   0.09  0.00  0.00  0.91  0.00  0.00  0.00  0.00  0.00
  YS02001904YS02001907    1.00   0.00  0.09  0.00  0.91  0.00  0.00  0.00  0.00  0.00
  YS02001887YS02001890    1.00   0.00  0.00  0.00  0.98  0.00  0.02  0.00  0.00  0.00
  YS02001652YS02001649    1.00   0.00  0.00  0.00  1.00  0.00  0.00  0.00  0.24  0.00
  YS02001655YS02001652    1.00   0.00  0.00  0.00  0.88  0.00  0.00  0.12  0.02  0.00
  YS02001658YS02001655    1.00   0.00  0.08  0.00  0.87  0.06  0.00  0.00  0.10  0.00
  YS02001661YS02001658    1.00   0.08  0.00  0.00  0.82  0.10  0.00  0.00  0.15  0.00
  YS02001664YS02001661    1.00   0.06  0.00  0.00  0.80  0.14  0.00  0.00  0.74  0.00
  YSB1154YSB6556          1.00   0.06  0.00  0.00  0.94  0.00  0.00  0.00  0.02  0.00
  YSB1174YSB1171          1.00   0.03  0.02  0.00  0.96  0.00  0.00  0.00  0.00  0.00
  YSB1171HS02004479       1.00   0.02  0.00  0.00  0.97  0.00  0.00  0.01  0.13  0.00
  HS02004881HS02006253    1.00   0.03  0.00  0.00  0.48  0.00  0.00  0.49  0.25  0.00
  YS02001793JiankangQianchi    1.00   0.00  0.00  0.00  0.66  0.34  0.00  0.00  0.63  0.00
  YS02001757CaochengTiaoxuchi    1.00   0.00  0.13  0.00  0.87  0.00  0.00  0.00  0.00  0.00
  WSF200WS02003060        1.00   0.00  0.01  0.00  0.84  0.15  0.00  0.00  0.68  0.00
  1                       1.00   0.00  0.00  0.00  0.00  1.00  0.00  0.00  0.46  0.00
  
  
  *************************
  Conduit Surcharge Summary
  *************************
  
  ----------------------------------------------------------------------------
                                                           Hours        Hours 
                         --------- Hours Full --------   Above Full   Capacity
  Conduit                Both Ends  Upstream  Dnstream   Normal Flow   Limited
  ----------------------------------------------------------------------------
  WS02006229WS02006228        0.81      1.00      0.81      2.13         0.81
  WS02006256WS02006235        4.74      4.74      6.32      3.28         0.01
  WS02006253WS02006251        0.88      0.88      0.95      0.01         0.01
  WS02006252WS02006251        1.10      1.10      1.47      1.36         0.01
  WS02006251WS02006249        0.88      0.90      0.89      1.03         0.73
  WS02006249WS02006248        0.81      0.81      0.89      1.85         0.01
  WS02006248WS02006247        0.86      0.86      0.93      0.01         0.01
  WS02006247WS02006245        0.86      0.96      0.86      1.93         0.86
  WS02006245WS02006243        0.87      0.89      0.87      0.54         0.24
  WS02006243WS02006242        0.91      0.91      1.10      0.01         0.01
  WS02006242WS02006240        0.82      0.82      1.19      1.54         0.01
  WS02006240WS02006239        0.80      0.86      0.80      1.19         0.69
  WS02006239WS02006238        0.92      1.02      0.92      1.24         0.81
  WS02006238WS02006235        0.84      0.84      1.08      0.01         0.01
  WS02006235WS02006234        0.65      0.65      0.79      4.64         0.01
  WS02006234WS02006232        0.65      0.65      1.07      0.58         0.58
  WS02006232WS02006231        0.60      0.60      1.07      0.60         0.01
  WS02006231WS02006230        0.55      0.55      0.61      4.85         0.01
  WS02006230WS02006229        1.76      2.02      1.76      5.25         1.76
  WS02006228WS02006109        0.86      1.44      0.86      3.32         0.86
  WS02006112WS02006115        0.01      0.01      0.55      0.01         0.01
  WS02006111WS02006112        0.01      0.01      2.42      0.01         0.01
  WS02006110WS02006113        0.01      0.01      1.24      0.01         0.01
  WS02006109WS02006110        0.57      0.57      1.44      0.57         0.01
  WS02004405WS02004406        0.01      0.01      0.01      0.53         0.01
  WS02004404WS02004405        0.01      0.01      0.01      5.20         0.01
  WS02003072WS02003073        0.01      0.01      0.01      3.66         0.01
  YS02001759YS02001757        5.22      5.22      5.40      0.01         0.01
  YS02001762YS02001759        5.12      5.12      5.22      0.01         0.01
  YS02001765YS02001762        4.93      4.93      5.12      0.01         0.01
  YS02001770YS02001767        4.80      4.80      4.82      0.01         0.20
  YS02001774YS02001770        4.71      4.71      5.05      0.01         0.01
  YS02001779YS02001774        4.28      4.28      5.05      0.01         0.01
  YS02001649YS02001757        5.16      5.16      5.40      0.01         0.01
  YS02001767YS02001765        4.82      4.82      4.93      0.01         0.01
  YS02001788YS02001790        0.01      0.01      0.01      0.01         0.01
  YS02001790YS02001791        0.01      0.01      0.08      0.01         0.01
  YS02001791YS02001793        0.08      0.08      0.24      0.01         0.01
  YS02001629YS02163301        4.66      4.66      4.76      0.01         0.01
  YS02001619YS02001622        1.86      1.86      2.27      0.01         0.01
  YS02001622YS02001625        2.27      2.27      4.51      0.01         0.01
  YS02001625YS02001629        1.87      1.87      4.51      0.01         0.01
  YS02163301YS02001633        4.76      4.76      4.96      0.01         0.01
  YS02163601YS02164001        4.93      4.93      5.15      0.01         0.01
  YS02164001YS02001641        4.93      4.93      5.00      0.01         0.01
  YS02001641YS02001644        5.00      5.01      5.02      0.01         0.24
  YS02001647YS02001649        4.48      4.48      5.16      0.01         0.01
  YS02001633YS02163601        4.88      4.88      5.15      0.01         0.01
  YS02001644YS02001647        4.48      4.48      5.02      0.01         0.01
  YS02001748YS02001751        0.01      0.01      2.78      0.01         0.01
  YS02001751YS02001754        2.78      2.78      4.35      0.01         0.01
  YS02001754YS02001757        4.49      4.49      5.40      0.01         0.01
  YS02001652YS02001649        4.52      4.52      5.16      0.01         0.01
  YS02001655YS02001652        3.31      3.31      4.44      0.01         0.01
  YS02001658YS02001655        0.01      0.01      3.31      0.01         0.01
  HS02004881HS02006253        0.01      0.01      0.54      0.01         0.01
  YS02001793JiankangQianchi        0.16      0.16      2.85      0.01         0.01
  YS02001757CaochengTiaoxuchi        0.49      0.49      5.40      0.01         0.01
  
  
  ***************
  Pumping Summary
  ***************
  
  ---------------------------------------------------------------------------------------------------------
                                                  Min       Avg       Max     Total     Power    % Time Off
                        Percent   Number of      Flow      Flow      Flow    Volume     Usage    Pump Curve
  Pump                 Utilized   Start-Ups       LPS       LPS       LPS  10^6 ltr     Kw-hr    Low   High
  ---------------------------------------------------------------------------------------------------------
  CC-Pump-1               27.65           2      0.00    176.45    200.00     1.380      3.18    0.0    0.0
  CC-Pump-2               23.40           3      0.00    120.83    200.00     0.960      2.34    0.0    0.0
  JK-Pump-1               46.79           5      0.00    154.03    300.00     2.048     39.06    0.0    0.0
  JK-Pump-2               36.16           4      0.00    208.42    683.00     1.957     37.69    0.0   97.5
  XR-Pump-1               87.23           4      0.00     87.73     95.00     2.109     42.17    0.0    0.0
  XR-Pump-2               85.10           5      0.00     85.63     95.00     1.938     38.40    0.0    0.0
  XR-Pump-3               76.59           6      0.00     85.09     95.00     1.710     33.11    0.0    0.0
  XR-Pump-4               76.59           6      0.00     85.09     95.00     1.710     33.11    0.0    0.0
  
  
  ***************************
  Link Pollutant Load Summary
  ***************************
  
  ------------------------------------------------------------------------------------------
                                 COD            SS            TN            TP         NH4-N
  Link                            kg            kg            kg            kg            kg
  ------------------------------------------------------------------------------------------
  WS02003066WSF200           290.738       485.121        12.079         1.257         6.906
  WS02006287WS02006284       106.133       181.084         6.241         0.722         3.740
  WS02006284WS02006280       106.557       181.767         6.281         0.727         3.765
  WS02006280WS02006229       106.539       181.735         6.280         0.727         3.765
  WS02006229WS02006228       299.088       498.182        11.809         1.204         6.691
  WS02006256WS02006235        62.944       102.634         2.209         0.213         1.230
  WS02006253WS02006251        15.213        27.043         0.455         0.040         0.243
  WS02006252WS02006251       133.178       217.340         3.377         0.266         1.719
  WS02006251WS02006249       144.619       238.263         3.741         0.299         1.916
  WS02006249WS02006248       136.303       224.589         3.532         0.283         1.809
  WS02006248WS02006247       136.196       224.443         3.525         0.282         1.806
  WS02006247WS02006245       136.003       224.135         3.520         0.282         1.803
  WS02006245WS02006243       135.988       224.152         3.518         0.281         1.801
  WS02006243WS02006242       137.250       226.276         3.558         0.285         1.823
  WS02006242WS02006240       139.377       229.791         3.625         0.291         1.860
  WS02006240WS02006239       142.021       234.182         3.705         0.298         1.904
  WS02006239WS02006238       145.473       239.787         3.829         0.311         1.973
  WS02006238WS02006235       147.413       242.828         3.900         0.318         2.014
  WS02006235WS02006234       195.552       321.298         5.626         0.486         2.979
  WS02006234WS02006232       195.289       320.863         5.626         0.486         2.980
  WS02006232WS02006231       194.532       319.638         5.599         0.484         2.965
  WS02006231WS02006230       193.932       318.702         5.580         0.482         2.954
  WS02006230WS02006229       193.483       317.981         5.572         0.482         2.951
  WS02006228WS02006109       298.355       497.024        11.786         1.202         6.679
  WS02006116WS02004401       302.838       504.606        12.410         1.284         7.078
  WS02006115WS02006116       303.956       506.392        12.444         1.287         7.096
  WS02006113WS02006111       304.361       506.624        12.496         1.293         7.128
  WS02006112WS02006115       305.235       508.475        12.498         1.293         7.127
  WS02006111WS02006112       303.932       505.935        12.482         1.292         7.121
  WS02006110WS02006113       304.975       507.624        12.525         1.296         7.145
  WS02006109WS02006110       306.173       509.565        12.582         1.302         7.178
  WS02004411WS02004412       294.237       490.798        12.217         1.271         6.984
  WS02004401WS02004402       301.578       502.562        12.361         1.279         7.050
  WS02004413WS02003067       291.477       486.287        12.098         1.259         6.916
  WS02004412WS02004413       292.889       488.626        12.170         1.267         6.959
  WS02004410WS02004411       295.316       492.527        12.251         1.274         7.002
  WS02004409WS02004410       296.379       494.243        12.288         1.278         7.023
  WS02004407WS02004409       297.209       495.558        12.309         1.279         7.033
  WS02004406WS02004407       297.358       495.761        12.304         1.278         7.029
  WS02004405WS02004406       298.921       498.298        12.369         1.285         7.066
  WS02004404WS02004405       299.858       499.768        12.368         1.283         7.062
  WS02004403WS02004404       299.424       499.085        12.285         1.272         7.008
  WS02004402WS02004403       300.487       500.812        12.327         1.276         7.032
  WS02004139WS02001211      1310.671      2099.703       123.337        15.365        76.929
  WS02004138WS02004139      1318.409      2112.102       124.058        15.455        77.379
  WS02003067WS02003066       290.890       485.365        12.086         1.258         6.910
  WS02001213WS02003059      1340.027      2146.635       126.203        15.724        78.723
  WS02001212WS02001213      1349.113      2161.185       127.055        15.830        79.255
  WS02001211WS02001212      1352.998      2167.408       127.421        15.876        79.483
  WS02003072WS02003073      1725.870      2783.837       147.640        18.155        91.488
  WS02003069WS02003072      1731.591      2793.070       148.133        18.216        91.794
  WS02003060WS02003069      1734.986      2798.521       148.390        18.247        91.952
  WS02003059WS02003060      1334.988      2138.627       125.716        15.663        78.419
  HS02004901HS02004770         2.495         4.507         0.048         0.004         0.022
  HS02004876HS02004881         9.897        17.953         0.301         0.027         0.160
  HS02004870HS02004876         7.691        13.866         0.267         0.025         0.145
  HS02004842HS02004848         1.347         2.345         0.030         0.002         0.014
  HS02004837HS02004842         5.981         9.731         0.497         0.061         0.307
  HS02004830HS02004837        48.459        78.793         4.230         0.523         2.628
  HS02004824HS02004830        49.209        79.993         4.302         0.532         2.673
  HS02004817HS02004824        54.512        89.541         4.441         0.542         2.744
  HS02004770HS02004777         9.618        17.493         0.210         0.014         0.095
  HS02004799HS02004480        42.579        73.657         1.948         0.211         1.122
  HS02004792HS02004799        39.861        68.369         1.945         0.215         1.130
  HS02004788HS02004792        26.442        45.146         1.539         0.176         0.914
  HS02004785HS02004788        11.111        19.893         0.361         0.033         0.191
  HS02004777HS02004785        10.604        19.076         0.316         0.027         0.162
  HS02004480HS02004478        50.524        88.545         2.037         0.215         1.156
  HS02004479HS02004480        12.386        21.972         0.513         0.056         0.298
  HS02004862HS02004870         5.791        10.205         0.228         0.023         0.127
  HS02004848HS02004852         1.567         2.755         0.035         0.002         0.016
  HS02004856HS02004862         3.093         5.667         0.065         0.004         0.030
  HS02004852HS02004856         1.564         2.750         0.035         0.002         0.016
  HS02004802HS02004478        55.909        93.027         4.231         0.511         2.601
  HS02004478WS02006287       106.311       181.375         6.257         0.724         3.750
  HS02004817HS02004807        53.134        87.337         4.310         0.526         2.662
  HS02004807HS02004802        56.639        94.192         4.302         0.520         2.645
  YS02001759YS02001757        89.555       147.487         2.154         0.158         1.090
  YS02001762YS02001759        48.178        80.059         1.316         0.103         0.686
  YS02001765YS02001762        47.738        79.225         1.332         0.106         0.698
  YS02001770YS02001767        45.249        75.123         1.038         0.067         0.510
  YS02001774YS02001770         4.722         7.939         0.119         0.009         0.061
  YS02001779YS02001774         3.737         6.203         0.165         0.017         0.095
  YS02001649YS02001757       132.230       210.856         3.019         0.222         1.464
  YS02001767YS02001765        47.754        79.180         1.348         0.108         0.708
  YS02006561YS02001783       195.704       320.453         5.930         0.532         3.204
  YS02001783YS02001784       195.636       320.357         5.927         0.532         3.202
  YS02001784YS02001785       203.010       332.170         6.640         0.621         3.648
  YS02001788YS02001790       203.694       333.287         6.713         0.631         3.694
  YS02001790YS02001791       204.729       334.958         6.812         0.643         3.756
  YS02001791YS02001793       204.665       334.863         6.807         0.642         3.753
  YS02001910YS02001907        71.263       115.041         3.165         0.321         1.817
  YS02001786YS02001788       203.252       332.567         6.668         0.625         3.666
  YS02001915YS02001910        71.153       114.811         3.123         0.316         1.790
  YS02001918YS02001915        39.815        62.479         2.396         0.276         1.441
  YS02001923YS02001920        19.790        30.432         0.458         0.033         0.230
  YS02001926YS02001923        19.416        29.828         0.419         0.029         0.206
  YS02001929YS02001926        19.127        29.356         0.387         0.024         0.185
  YS02001920YS02001918        39.734        62.350         2.376         0.273         1.429
  YS02001629YS02163301        22.350        35.826         0.515         0.032         0.238
  YS02001619YS02001622        25.047        39.898         0.580         0.035         0.266
  YS02001622YS02001625        24.203        38.658         0.558         0.034         0.256
  YS02001625YS02001629        23.178        37.146         0.533         0.033         0.245
  YS02163301YS02001633        22.329        35.819         0.513         0.032         0.238
  YS02163601YS02164001        63.119       100.302         1.459         0.106         0.713
  YS02164001YS02001641        62.792        99.786         1.439         0.104         0.702
  YS02001641YS02001644        63.223       100.508         1.437         0.104         0.699
  YS02001647YS02001649       100.514       159.266         2.168         0.154         1.044
  YS02006553YS02006556       143.534       234.352         4.688         0.441         2.583
  YS02006556YS02006558       143.512       234.309         4.653         0.436         2.560
  YSB6556YSB1171               6.155        11.038         0.192         0.019         0.107
  YS02001907YS02006553       143.480       234.273         4.687         0.441         2.584
  YS02006558YS02006561       195.707       320.450         5.930         0.532         3.204
  YS02001633YS02163601        63.692       101.134         1.441         0.103         0.698
  YS02001644YS02001647       101.331       160.462         2.187         0.155         1.054
  YS02001745YS02001748        41.992        68.322         1.430         0.126         0.779
  YS02001748YS02001751        41.224        67.131         1.456         0.131         0.800
  YS02001751YS02001754        40.881        66.597         1.541         0.144         0.858
  YS02001754YS02001757        41.913        68.279         1.711         0.167         0.968
  YS02001882YS02001884         0.482         0.754         0.015         0.001         0.008
  YS02001884YS02001887         1.862         3.015         0.052         0.005         0.028
  YS02001890YS02001895        73.126       120.509         1.540         0.120         0.774
  YS02001895YS02001898        72.998       120.325         1.534         0.120         0.771
  YS02001898YS02001901        72.893       120.180         1.531         0.120         0.769
  YS02001901YS02001904        72.996       120.378         1.554         0.123         0.784
  YS02001904YS02001907        73.873       121.826         1.657         0.136         0.849
  YS02001887YS02001890        73.972       121.816         1.604         0.128         0.814
  YS02001652YS02001649        33.538        54.385         0.881         0.069         0.431
  YS02001655YS02001652        34.397        55.696         0.905         0.071         0.442
  YS02001658YS02001655        33.622        54.360         0.770         0.053         0.354
  YS02001661YS02001658        34.103        55.017         0.760         0.050         0.344
  YS02001664YS02001661        33.982        54.754         0.759         0.050         0.344
  YSB1154YSB6556               5.640        10.218         0.129         0.011         0.067
  YSB1174YSB1171               4.332         7.894         0.136         0.014         0.076
  YSB1171HS02004479           12.271        21.798         0.500         0.055         0.291
  HS02004881HS02006253        11.104        20.246         0.320         0.027         0.169
  YS02001793JiankangQianchi       205.058       335.506         6.834         0.646         3.770
  YS02001757CaochengTiaoxuchi       257.483       417.377         6.525         0.509         3.312
  WSF200WS02003060           290.365       484.548        12.074         1.257         6.905
  1                         1730.460      2791.336       148.205        18.228        91.847
  CC-Pump-1                   77.893       126.988         1.966         0.154         0.999
  CC-Pump-2                   54.998        89.896         1.384         0.108         0.703
  JK-Pump-1                   61.141        99.381         2.216         0.217         1.240
  JK-Pump-2                   66.458       110.430         1.927         0.171         1.034
  XR-Pump-1                  382.810       613.213        36.074         4.495        22.504
  XR-Pump-2                  342.288       548.378        32.184         4.009        20.073
  XR-Pump-3                  298.409       478.064        28.064         3.496        17.503
  XR-Pump-4                  298.409       478.064        28.064         3.496        17.503
  

  Analysis begun on:  Sat Jul 10 21:40:41 2021
  Analysis ended on:  Sat Jul 10 21:40:42 2021
  Total elapsed time: 00:00:01