
  EPA STORM WATER MANAGEMENT MODEL - VERSION 5.1 (Build 5.3.0.dev0)
  --------------------------------------------------------------

  WARNING 04: minimum elevation drop used for Conduit WS02004404WS02004405
  WARNING 03: negative offset ignored for Link YS02001904YS02001907
  
  *********************************************************
  NOTE: The summary statistics displayed in this report are
  based on results found at every computational time step,  
  not just on results from each reporting time step.
  *********************************************************
  
  ****************
  Analysis Options
  ****************
  Flow Units ............... LPS
  Process Models:
    Rainfall/Runoff ........ YES
    RDII ................... NO
    Snowmelt ............... NO
    Groundwater ............ NO
    Flow Routing ........... YES
    Ponding Allowed ........ NO
    Water Quality .......... YES
  Infiltration Method ...... HORTON
  Flow Routing Method ...... DYNWAVE
  Surcharge Method ......... EXTRAN
  Starting Date ............ 08/28/2015 08:00:00
  Ending Date .............. 08/28/2015 15:50:00
  Antecedent Dry Days ...... 8.0
  Report Time Step ......... 00:01:00
  Wet Time Step ............ 00:01:00
  Dry Time Step ............ 00:01:00
  Routing Time Step ........ 5.00 sec
  Variable Time Step ....... YES
  Maximum Trials ........... 8
  Number of Threads ........ 4
  Head Tolerance ........... 0.001500 m
  
  
  **************************        Volume         Depth
  Runoff Quantity Continuity     hectare-m            mm
  **************************     ---------       -------
  Total Precipitation ......         1.797         3.934
  Evaporation Loss .........         0.000         0.000
  Infiltration Loss ........         0.429         0.940
  Surface Runoff ...........         0.958         2.097
  Final Storage ............         0.410         0.898
  Continuity Error (%) .....        -0.023
  
  
  **************************           COD            SS            TN            TP         NH4-N
  Runoff Quality Continuity             kg            kg            kg            kg            kg
  **************************    ----------    ----------    ----------    ----------    ----------
  Initial Buildup ..........     41378.656     70582.865      1804.177       168.684      1032.807
  Surface Buildup ..........        13.809        15.248         3.240         0.300         1.922
  Wet Deposition ...........         0.000         0.000         0.000         0.000         0.000
  Sweeping Removal .........         0.000         0.000         0.000         0.000         0.000
  Infiltration Loss ........        15.537        26.012         0.323         0.021         0.150
  BMP Removal ..............         0.000         0.000         0.000         0.000         0.000
  Surface Runoff ...........       466.842       761.213         9.794         0.620         4.600
  Remaining Buildup ........     40909.940     69810.654      1797.297       168.342      1029.978
  Continuity Error (%) .....         0.000         0.000         0.000         0.000         0.000
  
  
  **************************        Volume        Volume
  Flow Routing Continuity        hectare-m      10^6 ltr
  **************************     ---------     ---------
  Dry Weather Inflow .......         0.616         6.165
  Wet Weather Inflow .......         0.957         9.573
  Groundwater Inflow .......         0.000         0.000
  RDII Inflow ..............         0.000         0.000
  External Inflow ..........         0.102         1.024
  External Outflow .........         1.260        12.597
  Flooding Loss ............         0.110         1.097
  Evaporation Loss .........         0.000         0.000
  Exfiltration Loss ........         0.000         0.000
  Initial Stored Volume ....         0.076         0.761
  Final Stored Volume ......         0.465         4.651
  Continuity Error (%) .....        -4.700
  
  
  **************************           COD            SS            TN            TP         NH4-N
  Quality Routing Continuity            kg            kg            kg            kg            kg
  **************************    ----------    ----------    ----------    ----------    ----------
  Dry Weather Inflow .......      1541.201      2465.922       147.955        18.494        92.472
  Wet Weather Inflow .......       466.672       760.959         9.790         0.620         4.598
  Groundwater Inflow .......         0.000         0.000         0.000         0.000         0.000
  RDII Inflow ..............         0.000         0.000         0.000         0.000         0.000
  External Inflow ..........       183.418       293.469        17.608         2.201        11.005
  External Outflow .........      1620.328      2608.906       138.773        17.065        86.002
  Flooding Loss ............        45.610        74.421         1.480         0.138         0.811
  Exfiltration Loss ........         0.000         0.000         0.000         0.000         0.000
  Mass Reacted .............         0.000         0.000         0.000         0.000         0.000
  Initial Stored Mass ......         0.000         0.000         0.000         0.000         0.000
  Final Stored Mass ........       393.148       625.472        25.830         3.013        15.610
  Continuity Error (%) .....         6.033         6.009         5.287         5.158         5.229
  
  
  *************************
  Highest Continuity Errors
  *************************
  Node YS02001774 (33.32%)
  Node HS02004842 (30.94%)
  Node YS02001884 (25.57%)
  Node JK-storage (-23.08%)
  Node YSB1171 (8.04%)
  
  
  ***************************
  Time-Step Critical Elements
  ***************************
  Link WS02006252WS02006251 (49.88%)
  Link WS02006280WS02006229 (13.44%)
  Link YS02001793JiankangQianchi (10.33%)
  Link WS02006238WS02006235 (8.96%)
  Link YS02001791YS02001793 (2.22%)
  
  
  ********************************
  Highest Flow Instability Indexes
  ********************************
  Link WS02006113WS02006111 (56)
  Link WS02006111WS02006112 (17)
  Link YS02164001YS02001641 (11)
  Link YS02001641YS02001644 (11)
  Link YS02001765YS02001762 (11)
  
  
  *************************
  Routing Time Step Summary
  *************************
  Minimum Time Step           :     0.50 sec
  Average Time Step           :     1.84 sec
  Maximum Time Step           :     5.00 sec
  Percent in Steady State     :    -0.00
  Average Iterations per Step :     2.51
  Percent Not Converging      :     2.37
  
  
  ***************************
  Subcatchment Runoff Summary
  ***************************
  
  ------------------------------------------------------------------------------------------------------------------------------
                            Total      Total      Total      Total     Imperv       Perv      Total       Total     Peak  Runoff
                           Precip      Runon       Evap      Infil     Runoff     Runoff     Runoff      Runoff   Runoff   Coeff
  Subcatchment                 mm         mm         mm         mm         mm         mm         mm    10^6 ltr      LPS
  ------------------------------------------------------------------------------------------------------------------------------
  sub0                       3.93       0.00       0.00       0.28       3.61       0.00       3.61        0.00     1.24   0.919
  sub1                       3.93       0.00       0.00       0.43       3.42       0.00       3.42        0.02     6.63   0.868
  sub2                       3.93       0.00       0.00       1.46       2.40       0.00       2.40        0.02     5.83   0.610
  sub3                       3.93       0.00       0.00       1.46       2.37       0.00       2.37        0.05    11.83   0.602
  sub4                       3.93       0.00       0.00       0.43       3.28       0.00       3.28        0.07    13.07   0.835
  sub5                       3.93       0.00       0.00       0.28       3.57       0.00       3.57        0.04    11.79   0.907
  sub7                       3.93       0.00       0.00       0.35       3.52       0.00       3.52        0.01     4.17   0.895
  sub8                       3.93       0.00       0.00       0.35       3.51       0.00       3.51        0.02     7.36   0.893
  sub9                       3.93       0.00       0.00       0.35       3.51       0.00       3.51        0.02     5.46   0.892
  sub10                      3.93       0.00       0.00       0.31       3.54       0.00       3.54        0.04    11.79   0.899
  sub11                      3.93       0.00       0.00       0.31       3.55       0.00       3.55        0.04    13.85   0.903
  sub12                      3.93       0.00       0.00       0.51       3.38       0.00       3.38        0.03    11.61   0.858
  sub14                      3.93       0.00       0.00       0.35       3.51       0.00       3.51        0.03    10.67   0.892
  sub15                      3.93       0.00       0.00       1.18       2.70       0.00       2.70        0.05    14.46   0.685
  sub16                      3.93       0.00       0.00       1.30       2.60       0.00       2.60        0.03    10.26   0.660
  sub17                      3.93       0.00       0.00       1.26       2.63       0.00       2.63        0.02     8.30   0.670
  sub22                      3.93       0.00       0.00       1.69       2.20       0.00       2.20        0.14    47.38   0.560
  sub23                      3.93       0.00       0.00       1.46       2.44       0.00       2.44        0.12    40.34   0.619
  sub60                      3.93       0.00       0.00       0.47       2.29       0.00       2.29        0.69    59.55   0.581
  sub61                      3.93       0.00       0.00       0.67       2.47       0.00       2.47        0.76    76.70   0.628
  sub62                      3.93       0.00       0.00       0.31       2.64       0.00       2.64        0.81    77.77   0.672
  sub63                      3.93       0.00       0.00       1.14       2.21       0.00       2.21        0.67    72.39   0.562
  sub64                      3.93       0.00       0.00       0.59       2.18       0.00       2.18        0.66    56.46   0.555
  sub65                      3.93       0.00       0.00       0.51       2.21       0.00       2.21        0.68    57.19   0.562
  sub66                      3.93       0.00       0.00       1.14       1.91       0.00       1.91        0.59    52.16   0.486
  sub67                      3.93       0.00       0.00       0.31       2.93       0.00       2.93        0.91   102.43   0.746
  sub68                      3.93       0.00       0.00       0.55       2.64       0.00       2.64        0.81    85.40   0.670
  sub69                      3.93       0.00       0.00       0.59       2.87       0.00       2.87        0.67    87.43   0.730
  sub70                      3.93       2.93       0.00       2.33       3.46       0.00       3.46        0.79    66.09   0.504
  sub71                      3.93       0.00       0.00       0.31       2.52       0.00       2.52        0.59    53.77   0.640
  sub72                      3.93       0.00       0.00       0.28       1.74       0.00       1.74        0.35    24.82   0.441
  1                          3.93       3.37       0.00       1.30       3.47       0.36       3.84        0.90    61.13   0.525
  2                          3.93       0.00       0.00       2.85       0.87       0.10       0.97        0.39    53.11   0.247
  
  
  ****************************
  Subcatchment Washoff Summary
  ****************************
  
  ------------------------------------------------------------------------------------------
                                 COD            SS            TN            TP         NH4-N
  Subcatchment                    kg            kg            kg            kg            kg
  ------------------------------------------------------------------------------------------
  sub0                         0.513         0.932         0.008         0.001         0.004
  sub1                         2.021         3.686         0.038         0.003         0.018
  sub2                         1.147         2.008         0.027         0.002         0.012
  sub3                         2.722         4.685         0.062         0.004         0.028
  sub4                         4.308         7.729         0.091         0.005         0.044
  sub5                         4.614         8.311         0.081         0.006         0.039
  sub7                         1.100         2.059         0.021         0.001         0.010
  sub8                         1.665         3.170         0.035         0.002         0.016
  sub9                         1.398         2.626         0.028         0.002         0.013
  sub10                        3.873         7.080         0.071         0.005         0.034
  sub11                        3.914         7.281         0.074         0.005         0.036
  sub12                        3.307         6.074         0.059         0.004         0.028
  sub14                        2.950         5.486         0.057         0.004         0.027
  sub15                        3.405         6.022         0.068         0.005         0.032
  sub16                        2.209         3.930         0.043         0.003         0.020
  sub17                        2.007         3.534         0.038         0.003         0.017
  sub22                       10.069        17.459         0.200         0.015         0.092
  sub23                        6.326        11.408         0.145         0.009         0.065
  sub60                       29.764        47.952         0.661         0.037         0.315
  sub61                       38.269        61.536         0.766         0.048         0.367
  sub62                       40.532        66.388         0.869         0.050         0.415
  sub63                       29.081        46.316         0.658         0.043         0.297
  sub64                       34.522        53.481         0.683         0.047         0.322
  sub65                       35.404        55.089         0.708         0.047         0.335
  sub66                       21.449        33.699         0.505         0.031         0.231
  sub67                       61.186        99.609         1.135         0.079         0.545
  sub68                       43.555        70.988         0.906         0.057         0.429
  sub69                       41.765        69.349         0.834         0.055         0.394
  sub70                       60.427       100.085         1.327         0.086         0.608
  sub71                       26.872        44.344         0.621         0.033         0.295
  sub72                       16.073        24.373         0.328         0.021         0.157
  1                           27.774        46.375         0.638         0.042         0.286
  2                            4.812         7.584         0.168         0.010         0.069
  ------------------------------------------------------------------------------------------
  System                     569.034       930.647        11.956         0.761         5.602
  
  
  ******************
  Node Depth Summary
  ******************
  
  ---------------------------------------------------------------------------------
                                 Average  Maximum  Maximum  Time of Max    Reported
                                   Depth    Depth      HGL   Occurrence   Max Depth
  Node                 Type       Meters   Meters   Meters  days hr:min      Meters
  ---------------------------------------------------------------------------------
  WS02001211           JUNCTION     0.66     0.79     5.63     0  05:43        0.79
  WS02001212           JUNCTION     0.38     0.51     5.57     0  05:42        0.51
  WS02001213           JUNCTION     0.61     0.76     5.52     0  05:42        0.76
  WS02003069           JUNCTION     0.41     0.58     5.17     0  05:41        0.58
  WS02003072           JUNCTION     0.48     0.64     5.01     0  05:42        0.64
  WS02003073           JUNCTION     0.29     0.39     4.46     0  05:42        0.39
  WS02003060           JUNCTION     0.37     0.51     5.45     0  05:41        0.51
  WS02003066           JUNCTION     0.20     0.30     5.85     0  05:40        0.30
  WS02003059           JUNCTION     0.67     0.81     5.50     0  05:42        0.81
  WS02003067           JUNCTION     0.50     0.70     6.02     0  05:39        0.70
  WS02004401           JUNCTION     0.60     0.85     6.85     0  05:35        0.85
  WS02004402           JUNCTION     0.63     0.88     6.84     0  05:35        0.88
  WS02004403           JUNCTION     0.65     0.89     6.82     0  05:35        0.89
  WS02004404           JUNCTION     0.73     0.96     6.81     0  05:35        0.96
  WS02004406           JUNCTION     0.74     0.96     6.79     0  05:35        0.96
  WS02004409           JUNCTION     0.41     0.67     6.44     0  05:39        0.67
  WS02004410           JUNCTION     0.43     0.68     6.40     0  05:39        0.68
  WS02004411           JUNCTION     0.45     0.69     6.37     0  05:39        0.69
  WS02004412           JUNCTION     0.46     0.70     6.34     0  05:39        0.70
  WS02004413           JUNCTION     0.61     0.86     6.33     0  05:39        0.86
  WS02004405           JUNCTION     0.72     0.96     6.81     0  05:35        0.96
  WS02006109           JUNCTION     0.67     0.99     7.61     0  05:24        0.98
  WS02006110           JUNCTION     0.67     0.94     7.52     0  05:24        0.93
  WS02006111           JUNCTION     0.19     0.29     7.00     0  05:25        0.29
  WS02006112           JUNCTION     0.76     1.06     6.94     0  05:38        1.05
  WS02006113           JUNCTION     0.29     0.46     7.35     0  05:25        0.46
  WS02006115           JUNCTION     0.48     0.75     6.89     0  05:38        0.75
  WS02006116           JUNCTION     0.57     0.83     6.87     0  05:34        0.83
  WS02006230           JUNCTION     0.61     1.13     7.87     0  05:24        1.12
  WS02006231           JUNCTION     0.39     0.87     7.99     0  05:24        0.86
  WS02006232           JUNCTION     0.52     1.06     8.10     0  05:24        1.06
  WS02006234           JUNCTION     0.44     1.08     8.24     0  05:24        1.07
  WS02006235           JUNCTION     0.47     1.17     8.33     0  05:24        1.15
  WS02006238           JUNCTION     0.49     1.20     8.34     0  05:24        1.18
  WS02006240           JUNCTION     0.40     1.15     8.45     0  05:24        1.13
  WS02006242           JUNCTION     0.45     1.23     8.50     0  05:24        1.21
  WS02006243           JUNCTION     0.33     1.14     8.56     0  05:24        1.12
  WS02006245           JUNCTION     0.32     1.12     8.61     0  05:24        1.10
  WS02006247           JUNCTION     0.33     1.14     8.64     0  05:24        1.12
  WS02006248           JUNCTION     0.28     1.08     8.67     0  05:24        1.08
  WS02006249           JUNCTION     0.31     1.09     8.69     0  05:23        1.09
  WS02006239           JUNCTION     0.45     1.19     8.40     0  05:24        1.17
  WS02006251           JUNCTION     0.29     1.25     8.92     0  05:23        1.12
  WS02006252           JUNCTION     0.22     0.81     9.05     0  05:23        0.67
  WS02006253           JUNCTION     0.32     1.31     8.95     0  05:23        1.15
  WS02006256           JUNCTION     1.20     2.35     9.28     0  00:00        2.35
  WS02004138           JUNCTION     0.14     0.20     7.45     0  00:00        0.19
  WS02004139           JUNCTION     0.60     0.74     5.65     0  05:44        0.74
  WS02004407           JUNCTION     0.19     0.30     6.61     0  05:36        0.30
  WS02006228           JUNCTION     0.66     1.04     7.69     0  05:24        1.02
  WS02006229           JUNCTION     0.63     1.04     7.73     0  05:24        1.02
  WS02006280           JUNCTION     0.05     0.14     8.41     0  02:14        0.14
  WS02006284           JUNCTION     0.34     0.47     8.87     0  02:14        0.47
  WS02006287           JUNCTION     0.06     0.20     9.15     0  02:14        0.20
  WSF200               JUNCTION     0.18     0.30     5.54     0  05:38        0.30
  HS02004901           JUNCTION     0.10     0.22    10.04     0  02:12        0.22
  HS02004881           JUNCTION     0.00     0.02     9.05     0  02:13        0.02
  HS02004876           JUNCTION     0.03     0.10     9.13     0  02:13        0.10
  HS02004870           JUNCTION     0.01     0.04     9.32     0  02:14        0.04
  HS02004862           JUNCTION     0.01     0.04     9.43     0  02:15        0.04
  HS02004856           JUNCTION     0.07     0.10     9.53     0  02:14        0.10
  HS02004852           JUNCTION     0.00     0.02     9.54     0  02:15        0.02
  HS02004848           JUNCTION     0.00     0.02     9.63     0  02:12        0.02
  HS02004842           JUNCTION     0.33     0.36     9.63     0  02:12        0.36
  HS02004837           JUNCTION     0.02     0.05     9.63     0  02:12        0.05
  HS02004830           JUNCTION     0.03     0.06     9.53     0  02:13        0.06
  HS02004824           JUNCTION     0.02     0.04     9.44     0  02:15        0.04
  HS02004817           JUNCTION     0.41     0.51     9.36     0  02:14        0.51
  HS02004807           JUNCTION     0.10     0.19     9.36     0  02:14        0.19
  HS02004802           JUNCTION     0.14     0.23     9.36     0  02:14        0.23
  HS02004799           JUNCTION     0.09     0.24     9.45     0  02:12        0.24
  HS02004792           JUNCTION     0.02     0.09     9.61     0  02:12        0.09
  HS02004788           JUNCTION     0.01     0.07     9.97     0  02:13        0.07
  HS02004785           JUNCTION     0.02     0.13    10.03     0  02:13        0.13
  HS02004777           JUNCTION     0.12     0.24    10.04     0  02:12        0.24
  HS02004770           JUNCTION     0.09     0.21    10.04     0  02:12        0.21
  HS02004480           JUNCTION     0.05     0.19     9.43     0  02:13        0.19
  HS02004479           JUNCTION     0.09     0.22     9.43     0  02:12        0.22
  HS02004478           JUNCTION     0.04     0.12     9.34     0  02:14        0.12
  YS02001745           JUNCTION     0.29     0.54     8.05     0  05:13        0.54
  YS02001748           JUNCTION     0.64     0.98     8.05     0  05:13        0.97
  YS02001751           JUNCTION     0.81     1.17     8.05     0  05:13        1.17
  YS02001754           JUNCTION     1.05     1.44     8.05     0  05:13        1.44
  YS02001762           JUNCTION     1.24     1.65     8.05     0  05:13        1.65
  YS02001765           JUNCTION     1.19     1.60     8.05     0  05:13        1.60
  YS02001767           JUNCTION     1.16     1.56     8.05     0  05:13        1.56
  YS02001770           JUNCTION     1.15     1.56     8.05     0  05:13        1.56
  YS02001774           JUNCTION     1.22     1.63     8.05     0  05:13        1.63
  YS02001779           JUNCTION     0.98     1.37     8.05     0  05:13        1.37
  YS02001882           JUNCTION     0.23     0.41     7.12     0  02:43        0.41
  YS02001884           JUNCTION     0.32     0.50     7.12     0  02:43        0.50
  YS02001759           JUNCTION     1.27     1.69     8.05     0  05:13        1.69
  YS02001887           JUNCTION     0.40     0.58     7.12     0  02:42        0.58
  YS02001890           JUNCTION     0.43     0.61     7.12     0  02:43        0.61
  YS02001898           JUNCTION     0.20     0.37     7.10     0  02:43        0.37
  YS02001901           JUNCTION     0.32     0.49     7.10     0  02:43        0.49
  YS02001904           JUNCTION     0.30     0.47     7.10     0  02:44        0.47
  YS02001907           JUNCTION     0.62     0.81     7.10     0  02:44        0.81
  YS02001910           JUNCTION     0.41     0.60     7.10     0  02:43        0.60
  YS02001915           JUNCTION     0.22     0.38     7.10     0  02:44        0.38
  YS02001918           JUNCTION     0.07     0.09     7.15     0  03:03        0.09
  YS02001619           JUNCTION     0.77     1.13     8.05     0  05:12        1.12
  YS02001629           JUNCTION     1.10     1.50     8.05     0  05:12        1.50
  YS02001641           JUNCTION     1.21     1.62     8.05     0  05:12        1.62
  YS02001644           JUNCTION     1.21     1.62     8.05     0  05:12        1.62
  YS02001652           JUNCTION     1.06     1.46     8.05     0  05:12        1.46
  YS02001655           JUNCTION     0.83     1.20     8.05     0  05:12        1.20
  YS02001920           JUNCTION     0.16     0.19     7.20     0  03:02        0.19
  YS02001923           JUNCTION     0.05     0.07     7.33     0  03:01        0.07
  YS02001926           JUNCTION     0.12     0.16     7.60     0  03:01        0.16
  YS02001929           JUNCTION     0.05     0.08     7.77     0  03:01        0.08
  YS02001658           JUNCTION     0.58     0.91     8.05     0  05:12        0.91
  YS02001661           JUNCTION     0.39     0.65     8.05     0  05:13        0.65
  YS02001664           JUNCTION     0.06     0.13     8.05     0  05:13        0.13
  YS02001622           JUNCTION     0.79     1.15     8.05     0  05:12        1.15
  YS02001633           JUNCTION     1.19     1.60     8.05     0  05:14        1.60
  YS02001649           JUNCTION     1.25     1.66     8.05     0  05:12        1.66
  YS02001757           JUNCTION     1.37     1.79     8.05     0  05:13        1.79
  YS02001895           JUNCTION     0.20     0.37     7.11     0  02:43        0.37
  YS02001625           JUNCTION     1.06     1.45     8.05     0  05:12        1.45
  YS02163301           JUNCTION     1.13     1.54     8.05     0  05:12        1.54
  YS02163601           JUNCTION     1.24     1.66     8.05     0  05:12        1.66
  YS02164001           JUNCTION     1.18     1.60     8.05     0  05:12        1.60
  YS02001647           JUNCTION     1.04     1.44     8.05     0  05:12        1.44
  YSB1154              JUNCTION     0.22     0.37     9.43     0  02:13        0.37
  YSB6556              JUNCTION     0.12     0.26     9.43     0  02:13        0.26
  YSB1174              JUNCTION     0.18     0.32     9.43     0  02:13        0.32
  YSB1171              JUNCTION     0.38     0.53     9.43     0  02:13        0.53
  YS02006553           JUNCTION     0.63     0.82     7.10     0  02:43        0.82
  YS02006561           JUNCTION     0.11     0.20     6.86     0  02:44        0.20
  YS02006556           JUNCTION     0.60     0.79     7.10     0  02:44        0.79
  YS02006558           JUNCTION     0.65     0.83     7.10     0  02:44        0.83
  YS02001783           JUNCTION     0.19     0.36     6.50     0  02:44        0.36
  YS02001784           JUNCTION     0.22     0.39     6.45     0  02:44        0.39
  YS02001786           JUNCTION     0.19     0.33     6.36     0  02:45        0.33
  YS02001788           JUNCTION     0.13     0.24     6.22     0  02:45        0.24
  YS02001790           JUNCTION     0.16     0.30     5.94     0  02:45        0.30
  YS02001791           JUNCTION     0.11     0.19     5.66     0  02:53        0.19
  YS02001793           JUNCTION     0.08     0.72     5.55     0  04:33        0.70
  WSC                  OUTFALL      0.29     0.39     1.06     0  05:43        0.39
  JK-storage           STORAGE      1.10     4.72     5.52     0  04:34        4.71
  CC-storage           STORAGE      0.68     1.05     8.05     0  05:14        1.05
  XR-storage           STORAGE      1.75     6.20     4.20     0  07:50        6.20
  
  
  *******************
  Node Inflow Summary
  *******************
  
  -------------------------------------------------------------------------------------------------
                                  Maximum  Maximum                  Lateral       Total        Flow
                                  Lateral    Total  Time of Max      Inflow      Inflow     Balance
                                   Inflow   Inflow   Occurrence      Volume      Volume       Error
  Node                 Type           LPS      LPS  days hr:min    10^6 ltr    10^6 ltr     Percent
  -------------------------------------------------------------------------------------------------
  WS02001211           JUNCTION      7.35   389.04     0  05:47       0.207        7.14       0.391
  WS02001212           JUNCTION      0.00   390.52     0  05:48           0        7.11       0.291
  WS02001213           JUNCTION      0.00   391.92     0  05:48           0        7.09       0.225
  WS02003069           JUNCTION      0.32   941.54     0  05:41     0.00902        12.6       0.131
  WS02003072           JUNCTION      0.00   941.45     0  05:42           0        12.6       0.185
  WS02003073           JUNCTION      1.82   943.21     0  05:42      0.0514        12.6       0.192
  WS02003060           JUNCTION     16.53   941.27     0  05:41       0.466        12.6       0.129
  WS02003066           JUNCTION      0.00   538.62     0  05:40           0        5.11       0.042
  WS02003059           JUNCTION      0.00   394.03     0  05:48           0        7.08       0.380
  WS02003067           JUNCTION      0.00   538.61     0  05:39           0        5.12       0.103
  WS02004401           JUNCTION      0.00   539.41     0  05:34           0        5.24       0.224
  WS02004402           JUNCTION      0.00   539.32     0  05:35           0        5.23       0.226
  WS02004403           JUNCTION      0.00   539.29     0  05:35           0        5.22       0.217
  WS02004404           JUNCTION      0.16   539.43     0  05:35     0.00457        5.21       0.176
  WS02004406           JUNCTION      0.00   539.48     0  05:35           0        5.19       0.435
  WS02004409           JUNCTION      0.00   539.41     0  05:36           0        5.17       0.100
  WS02004410           JUNCTION      0.00   538.97     0  05:36           0        5.16       0.137
  WS02004411           JUNCTION      0.00   538.69     0  05:37           0        5.15       0.160
  WS02004412           JUNCTION      0.00   538.63     0  05:39           0        5.15       0.200
  WS02004413           JUNCTION      0.00   538.62     0  05:39           0        5.14       0.332
  WS02004405           JUNCTION      0.04   539.48     0  05:35     0.00107         5.2       0.269
  WS02006109           JUNCTION      1.23   549.10     0  05:25      0.0347        5.28       0.181
  WS02006110           JUNCTION      0.00   549.04     0  05:25           0        5.27       0.170
  WS02006111           JUNCTION      0.00   568.32     0  05:25           0        5.26       0.012
  WS02006112           JUNCTION      8.30   549.08     0  05:25      0.0226        5.28       0.318
  WS02006113           JUNCTION      0.00   552.16     0  05:24           0        5.26       0.049
  WS02006115           JUNCTION      0.00   545.41     0  05:38           0        5.26       0.157
  WS02006116           JUNCTION      0.00   539.92     0  05:32           0        5.25       0.174
  WS02006230           JUNCTION     10.28   534.58     0  05:24        0.29        4.46       0.177
  WS02006231           JUNCTION      0.00   525.13     0  05:24           0        4.17      -0.072
  WS02006232           JUNCTION      0.00   524.75     0  05:24           0        4.17       0.142
  WS02006234           JUNCTION      0.00   524.63     0  05:24           0        4.17      -0.079
  WS02006235           JUNCTION      0.00   526.93     0  05:27           0        4.29       0.110
  WS02006238           JUNCTION      0.00   418.85     0  05:40           0        1.97       0.042
  WS02006240           JUNCTION      0.00   416.94     0  05:40           0        1.86       0.021
  WS02006242           JUNCTION      0.00   416.50     0  05:40           0        1.82       0.033
  WS02006243           JUNCTION      0.00   416.09     0  05:40           0        1.78      -0.156
  WS02006245           JUNCTION      0.00   415.45     0  05:40           0        1.76       0.218
  WS02006247           JUNCTION      0.00   415.20     0  05:40           0        1.75       0.006
  WS02006248           JUNCTION      0.00   415.62     0  05:40           0        1.75      -0.092
  WS02006249           JUNCTION      0.00   427.99     0  05:23           0        1.81       0.110
  WS02006239           JUNCTION      0.00   418.34     0  05:40           0        1.92      -0.101
  WS02006251           JUNCTION      0.08   412.74     0  05:23     0.00217        1.83      -0.015
  WS02006252           JUNCTION      0.00   400.00     0  05:20           0        1.68       0.008
  WS02006253           JUNCTION      1.24   115.63     0  05:22     0.00293       0.151       0.117
  WS02006256           JUNCTION      0.00   983.00     0  00:00           0        3.46      -0.003
  WS02004138           JUNCTION      0.00   380.00     0  00:00           0        6.95       0.060
  WS02004139           JUNCTION      0.32   396.51     0  00:00     0.00905        6.96       0.486
  WS02004407           JUNCTION      0.00   539.44     0  05:35           0        5.17       0.042
  WS02006228           JUNCTION      0.00   547.85     0  05:25           0        5.25       0.147
  WS02006229           JUNCTION      0.00   546.03     0  05:24           0        5.26       0.153
  WS02006280           JUNCTION      0.00   187.95     0  02:14           0       0.806       0.009
  WS02006284           JUNCTION      0.10   187.96     0  02:14      0.0027       0.807       0.138
  WS02006287           JUNCTION      0.00   187.89     0  02:14           0       0.805       0.089
  WSF200               JUNCTION      0.00   538.62     0  05:40           0        5.11       0.032
  HS02004901           JUNCTION     10.26    10.26     0  02:07      0.0272      0.0273       6.868
  HS02004881           JUNCTION      4.17    35.30     0  02:13      0.0119       0.124       0.056
  HS02004876           JUNCTION      6.63    31.45     0  02:13      0.0227       0.113       0.464
  HS02004870           JUNCTION      7.36    25.03     0  02:13      0.0224        0.09       0.118
  HS02004862           JUNCTION      6.03    18.25     0  02:14       0.028      0.0677       0.247
  HS02004856           JUNCTION      5.46    12.31     0  02:13      0.0169      0.0412       3.618
  HS02004852           JUNCTION      0.00     7.27     0  02:13           0      0.0243       0.200
  HS02004848           JUNCTION     11.83    11.83     0  02:15      0.0533      0.0533       0.081
  HS02004842           JUNCTION      0.00     4.94     0  02:23           0       0.042      44.809
  HS02004837           JUNCTION     18.14    22.45     0  02:12       0.218       0.247       0.331
  HS02004830           JUNCTION      0.15    22.58     0  02:12     0.00423       0.237       0.521
  HS02004824           JUNCTION     13.12    35.56     0  02:15      0.0699       0.306       0.176
  HS02004817           JUNCTION      0.60    36.16     0  02:15      0.0169       0.322       5.446
  HS02004807           JUNCTION     13.85    48.70     0  02:14      0.0413       0.347       1.232
  HS02004802           JUNCTION      0.00    48.89     0  02:16           0       0.343       1.201
  HS02004799           JUNCTION     10.67   118.61     0  02:11      0.0334       0.411       0.564
  HS02004792           JUNCTION     47.66   108.24     0  02:11       0.147       0.378       0.110
  HS02004788           JUNCTION     16.13    62.97     0  02:12      0.0934       0.232       0.169
  HS02004785           JUNCTION      0.15    47.39     0  02:12     0.00423       0.141       0.341
  HS02004777           JUNCTION      0.03    47.91     0  02:10    0.000846       0.141       3.813
  HS02004770           JUNCTION     40.34    49.32     0  02:09       0.116       0.142       2.233
  HS02004480           JUNCTION      0.00   139.86     0  02:13           0       0.478       0.147
  HS02004479           JUNCTION      0.00    21.66     0  02:13           0      0.0793       0.928
  HS02004478           JUNCTION      0.00   187.88     0  02:14           0       0.806       0.077
  YS02001745           JUNCTION     59.55    71.82     0  04:01       0.693       0.694       0.686
  YS02001748           JUNCTION      0.04   111.58     0  04:01     0.00127       0.698       2.614
  YS02001751           JUNCTION      0.01   130.55     0  04:02     0.00031       0.679       3.537
  YS02001754           JUNCTION      0.26    73.90     0  02:28     0.00733       0.656       3.888
  YS02001762           JUNCTION      0.00    94.49     0  03:09           0       0.737       3.079
  YS02001765           JUNCTION      0.00    88.10     0  02:44           0        0.74       3.476
  YS02001767           JUNCTION      0.54   111.01     0  03:10      0.0151       0.762       4.947
  YS02001770           JUNCTION     77.92   115.61     0  03:10       0.816       0.835       4.057
  YS02001774           JUNCTION      0.00    53.72     0  03:10           0      0.0778      49.962
  YS02001779           JUNCTION      0.01    49.42     0  03:10    0.000141      0.0332      88.682
  YS02001882           JUNCTION      0.00     3.59     0  02:04           0     0.00454      53.628
  YS02001884           JUNCTION      0.00    10.52     0  02:06           0      0.0183      34.360
  YS02001759           JUNCTION     76.74   162.03     0  03:09       0.763        1.46       1.659
  YS02001887           JUNCTION    102.88   102.88     0  02:33       0.917       0.926       0.755
  YS02001890           JUNCTION      0.00   102.11     0  02:36           0       0.904       0.850
  YS02001898           JUNCTION      0.00   101.63     0  02:38           0       0.893       0.224
  YS02001901           JUNCTION      0.00   101.54     0  02:38           0       0.892       0.599
  YS02001904           JUNCTION      0.00   101.10     0  02:40           0       0.891       0.557
  YS02001907           JUNCTION      0.00   181.25     0  02:45           0         1.9       1.154
  YS02001910           JUNCTION      0.00    81.32     0  02:53           0        1.02       0.977
  YS02001915           JUNCTION     53.79    80.74     0  02:52       0.595        1.03       0.421
  YS02001918           JUNCTION      0.00    27.74     0  03:02           0       0.432       0.237
  YS02001619           JUNCTION     52.16    52.16     0  02:46       0.586       0.586       2.068
  YS02001629           JUNCTION      0.00    84.58     0  03:15           0       0.507       5.809
  YS02001641           JUNCTION      0.00   109.90     0  03:12           0        1.08       2.034
  YS02001644           JUNCTION     56.50   161.06     0  02:54       0.665        1.72       1.566
  YS02001652           JUNCTION      0.00    83.20     0  02:33           0       0.621       3.956
  YS02001655           JUNCTION      0.15   125.69     0  03:06     0.00434        0.65       3.893
  YS02001920           JUNCTION      2.87    27.75     0  03:01      0.0809       0.434       0.444
  YS02001923           JUNCTION      0.04    24.88     0  03:01     0.00106       0.353       0.077
  YS02001926           JUNCTION      0.05    24.87     0  03:01     0.00147       0.354       0.557
  YS02001929           JUNCTION     24.82    24.82     0  03:01       0.353       0.353       0.074
  YS02001658           JUNCTION      0.00   115.08     0  03:59           0       0.665       2.780
  YS02001661           JUNCTION      0.00    72.38     0  02:35           0        0.67       1.423
  YS02001664           JUNCTION     72.39    72.39     0  02:35       0.669       0.669       0.011
  YS02001622           JUNCTION      0.00    72.73     0  03:13           0       0.575       5.715
  YS02001633           JUNCTION     57.39   108.74     0  02:49       0.685        1.14       2.912
  YS02001649           JUNCTION      0.00   239.70     0  03:06           0        2.25       1.731
  YS02001757           JUNCTION      0.00   411.96     0  02:47           0        4.25       2.256
  YS02001895           JUNCTION      0.00   101.69     0  02:37           0       0.897       0.399
  YS02001625           JUNCTION      0.00    67.97     0  03:14           0       0.544       7.830
  YS02163301           JUNCTION      0.00    56.81     0  03:05           0       0.487       5.393
  YS02163601           JUNCTION      0.11   114.27     0  03:08      0.0031        1.11       2.835
  YS02164001           JUNCTION      0.00   112.54     0  03:08           0        1.09       1.997
  YS02001647           JUNCTION      0.00   160.38     0  03:01           0        1.68       1.731
  YSB1154              JUNCTION     11.79    11.79     0  02:10      0.0404      0.0417       3.586
  YSB6556              JUNCTION      0.00    11.68     0  02:12           0      0.0427       3.001
  YSB1174              JUNCTION     11.61    11.61     0  02:06      0.0295      0.0304       4.410
  YSB1171              JUNCTION      0.00    21.78     0  02:12           0      0.0786       8.740
  YS02006553           JUNCTION      0.00   181.31     0  02:47           0        1.89       0.750
  YS02006561           JUNCTION      0.00   266.56     0  02:44           0        2.68       0.023
  YS02006556           JUNCTION      0.00   181.39     0  02:47           0         1.9       0.539
  YS02006558           JUNCTION     86.28   266.57     0  02:43       0.835        2.71       0.164
  YS02001783           JUNCTION      0.00   266.55     0  02:44           0        2.68       0.053
  YS02001784           JUNCTION      1.06   267.62     0  02:44      0.0299        2.71       0.087
  YS02001786           JUNCTION      0.06   267.65     0  02:44     0.00159         2.7       0.085
  YS02001788           JUNCTION      0.07   267.71     0  02:45       0.002         2.7       0.049
  YS02001790           JUNCTION      0.15   267.87     0  02:45     0.00437        2.71       0.061
  YS02001791           JUNCTION      0.00   267.86     0  02:45           0        2.71       0.030
  YS02001793           JUNCTION      0.00   546.17     0  03:22           0        2.72       0.063
  WSC                  OUTFALL       0.00   943.13     0  05:43           0        12.6       0.000
  JK-storage           STORAGE       0.00   784.21     0  03:23           0        2.87     -18.751
  CC-storage           STORAGE       0.00   408.53     0  02:50           0        4.15       1.246
  XR-storage           STORAGE     306.46   306.46     0  02:42        6.93        7.53      -2.198
  
  
  **********************
  Node Surcharge Summary
  **********************
  
  Surcharging occurs when water rises above the top of the highest conduit.
  ---------------------------------------------------------------------
                                               Max. Height   Min. Depth
                                   Hours       Above Crown    Below Rim
  Node                 Type      Surcharged         Meters       Meters
  ---------------------------------------------------------------------
  WS02006109           JUNCTION        0.75          0.171        1.649
  WS02006110           JUNCTION        0.25          0.026        1.824
  WS02006112           JUNCTION        0.25          0.059        1.621
  WS02006230           JUNCTION        0.23          0.046        1.524
  WS02006231           JUNCTION        0.28          0.157        1.373
  WS02006232           JUNCTION        0.86          0.364        1.116
  WS02006234           JUNCTION        0.53          0.358        0.882
  WS02006235           JUNCTION        0.71          0.456        0.834
  WS02006238           JUNCTION        0.77          0.479        0.951
  WS02006240           JUNCTION        0.49          0.444        0.946
  WS02006242           JUNCTION        0.60          0.504        0.316
  WS02006243           JUNCTION        0.46          0.430        0.340
  WS02006245           JUNCTION        0.44          0.414        0.436
  WS02006247           JUNCTION        0.46          0.428        0.332
  WS02006248           JUNCTION        0.37          0.363        0.017
  WS02006249           JUNCTION        0.42          0.390        0.000
  WS02006239           JUNCTION        0.59          0.448        0.842
  WS02006251           JUNCTION        0.28          0.225        0.955
  WS02006252           JUNCTION        0.72          0.411        0.689
  WS02006253           JUNCTION        0.28          0.271        2.209
  WS02006256           JUNCTION        6.07          2.050        0.000
  WS02006228           JUNCTION        0.72          0.207        1.993
  YS02001751           JUNCTION        2.14          0.173        1.027
  YS02001754           JUNCTION        4.06          0.394        0.756
  YS02001762           JUNCTION        4.85          0.652        0.498
  YS02001765           JUNCTION        4.67          0.602        0.498
  YS02001767           JUNCTION        4.58          0.563        0.467
  YS02001770           JUNCTION        4.46          0.528        0.392
  YS02001774           JUNCTION        4.79          0.631        0.419
  YS02001779           JUNCTION        3.95          0.367        0.313
  YS02001759           JUNCTION        4.99          0.688        0.522
  YS02001619           JUNCTION        1.01          0.125        0.485
  YS02001629           JUNCTION        1.02          0.125        0.345
  YS02001641           JUNCTION        4.73          0.616        0.484
  YS02001644           JUNCTION        4.75          0.621        0.299
  YS02001652           JUNCTION        4.17          0.427        0.703
  YS02001655           JUNCTION        2.71          0.203        0.997
  YS02001622           JUNCTION        1.80          0.150        0.470
  YS02001633           JUNCTION        4.62          0.579        0.481
  YS02001649           JUNCTION        4.89          0.662        0.388
  YS02001757           JUNCTION        5.30          0.791        0.419
  YS02001625           JUNCTION        4.24          0.450        0.330
  YS02163301           JUNCTION        4.50          0.537        0.493
  YS02163601           JUNCTION        4.88          0.655        0.425
  YS02164001           JUNCTION        4.67          0.595        0.505
  YS02001647           JUNCTION        4.21          0.443        0.457
  
  
  *********************
  Node Flooding Summary
  *********************
  
  Flooding refers to all water that overflows a node, whether it ponds or not.
  --------------------------------------------------------------------------
                                                             Total   Maximum
                                 Maximum   Time of Max       Flood    Ponded
                        Hours       Rate    Occurrence      Volume     Depth
  Node                 Flooded       LPS   days hr:min    10^6 ltr    Meters
  --------------------------------------------------------------------------
  WS02006249              0.27     96.81      0  05:23       0.060     0.000
  WS02006256              1.47    978.40      0  00:00       1.036     0.000
  
  
  **********************
  Storage Volume Summary
  **********************
  
  --------------------------------------------------------------------------------------------------
                         Average     Avg  Evap Exfil       Maximum     Max    Time of Max    Maximum
                          Volume    Pcnt  Pcnt  Pcnt        Volume    Pcnt     Occurrence    Outflow
  Storage Unit           1000 m3    Full  Loss  Loss       1000 m3    Full    days hr:min        LPS
  --------------------------------------------------------------------------------------------------
  JK-storage               0.055      19     0     0         0.237      81       0  04:34     983.00
  CC-storage               1.901      12     0     0         2.917      19       0  05:14     400.00
  XR-storage               0.210      23     0     0         0.744      80       0  07:50     380.00
  
  
  ***********************
  Outfall Loading Summary
  ***********************
  
  ---------------------------------------------------------------------------------------------------------------------------------
                         Flow       Avg       Max       Total         Total         Total         Total         Total         Total
                         Freq      Flow      Flow      Volume           COD            SS            TN            TP         NH4-N
  Outfall Node           Pcnt       LPS       LPS    10^6 ltr            kg            kg            kg            kg            kg
  ---------------------------------------------------------------------------------------------------------------------------------
  WSC                   99.97    535.83    943.13      12.597      1620.469      2609.131       138.788        17.067        86.012
  ---------------------------------------------------------------------------------------------------------------------------------
  System                99.97    535.83    943.13      12.597      1620.469      2609.131       138.788        17.067        86.012
  
  
  ********************
  Link Flow Summary
  ********************
  
  -----------------------------------------------------------------------------
                                 Maximum  Time of Max   Maximum    Max/    Max/
                                  |Flow|   Occurrence   |Veloc|    Full    Full
  Link                 Type          LPS  days hr:min     m/sec    Flow   Depth
  -----------------------------------------------------------------------------
  WS02003066WSF200     CONDUIT    538.62     0  05:40      2.77    0.09    0.23
  WS02006287WS02006284 CONDUIT    187.86     0  02:14      1.57    0.09    0.21
  WS02006284WS02006280 CONDUIT    187.95     0  02:14      1.81    0.08    0.19
  WS02006280WS02006229 CONDUIT    187.96     0  02:14      2.91    0.04    0.14
  WS02006229WS02006228 CONDUIT    547.85     0  05:25      1.09    1.81    1.00
  WS02006256WS02006235 CONDUIT    288.60     0  00:00      4.23    3.05    1.00
  WS02006253WS02006251 CONDUIT    114.77     0  05:22      0.47    0.34    1.00
  WS02006252WS02006251 CONDUIT    404.32     0  05:23      3.22    1.48    1.00
  WS02006251WS02006249 CONDUIT    427.99     0  05:23      1.11    1.23    1.00
  WS02006249WS02006248 CONDUIT    415.62     0  05:40      1.14    2.28    1.00
  WS02006248WS02006247 CONDUIT    415.20     0  05:40      1.08    0.90    1.00
  WS02006247WS02006245 CONDUIT    415.45     0  05:40      1.08    3.29    1.00
  WS02006245WS02006243 CONDUIT    416.09     0  05:40      1.08    1.23    1.00
  WS02006243WS02006242 CONDUIT    416.50     0  05:40      1.08    0.89    1.00
  WS02006242WS02006240 CONDUIT    416.94     0  05:40      1.08    1.66    1.00
  WS02006240WS02006239 CONDUIT    418.34     0  05:40      1.09    1.32    1.00
  WS02006239WS02006238 CONDUIT    418.85     0  05:40      1.09    1.34    1.00
  WS02006238WS02006235 CONDUIT    420.76     0  05:40      1.46    0.94    1.00
  WS02006235WS02006234 CONDUIT    524.63     0  05:24      1.36    5.54    1.00
  WS02006234WS02006232 CONDUIT    524.75     0  05:24      1.39    1.06    1.00
  WS02006232WS02006231 CONDUIT    525.13     0  05:24      1.36    1.10    1.00
  WS02006231WS02006230 CONDUIT    524.30     0  05:24      1.36    7.95    1.00
  WS02006230WS02006229 CONDUIT    533.50     0  05:24      1.39   11.87    1.00
  WS02006228WS02006109 CONDUIT    547.87     0  05:25      1.09    2.39    1.00
  WS02006116WS02004401 CONDUIT    539.41     0  05:34      0.78    0.74    0.84
  WS02006115WS02006116 CONDUIT    539.92     0  05:32      0.90    0.69    0.76
  WS02006113WS02006111 CONDUIT    568.32     0  05:25      2.47    0.68    0.47
  WS02006112WS02006115 CONDUIT    545.41     0  05:38      0.78    0.32    0.87
  WS02006111WS02006112 CONDUIT    549.04     0  05:25      1.52    0.26    0.67
  WS02006110WS02006113 CONDUIT    552.16     0  05:24      1.30    0.50    0.79
  WS02006109WS02006110 CONDUIT    549.04     0  05:25      1.09    1.06    1.00
  WS02004411WS02004412 CONDUIT    538.63     0  05:39      0.92    0.77    0.70
  WS02004401WS02004402 CONDUIT    539.32     0  05:35      0.75    0.65    0.87
  WS02004413WS02003067 CONDUIT    538.61     0  05:39      1.11    0.23    0.59
  WS02004412WS02004413 CONDUIT    538.62     0  05:39      0.82    0.36    0.78
  WS02004410WS02004411 CONDUIT    538.69     0  05:37      0.94    0.74    0.69
  WS02004409WS02004410 CONDUIT    538.97     0  05:36      0.98    0.70    0.68
  WS02004407WS02004409 CONDUIT    539.41     0  05:36      1.49    0.19    0.48
  WS02004406WS02004407 CONDUIT    539.44     0  05:35      1.04    0.24    0.63
  WS02004405WS02004406 CONDUIT    539.48     0  05:35      0.70    1.06    0.96
  WS02004404WS02004405 CONDUIT    539.44     0  05:35      0.70    5.29    0.96
  WS02004403WS02004404 CONDUIT    539.27     0  05:35      0.71    0.39    0.93
  WS02004402WS02004403 CONDUIT    539.29     0  05:35      0.73    0.77    0.89
  WS02004139WS02001211 CONDUIT    381.69     0  05:47      0.90    0.48    0.60
  WS02004138WS02004139 CONDUIT    396.19     0  00:00      3.65    0.08    0.44
  WS02003067WS02003066 CONDUIT    538.62     0  05:40      1.21    0.17    0.42
  WS02001213WS02003059 CONDUIT    394.03     0  05:48      0.88    0.65    0.78
  WS02001212WS02001213 CONDUIT    391.92     0  05:48      1.32    0.60    0.47
  WS02001211WS02001212 CONDUIT    390.52     0  05:48      0.78    0.30    0.65
  WS02003072WS02003073 CONDUIT    941.39     0  05:42      1.73    2.03    0.49
  WS02003069WS02003072 CONDUIT    941.45     0  05:42      1.62    0.45    0.51
  WS02003060WS02003069 CONDUIT    941.22     0  05:41      1.87    0.37    0.46
  WS02003059WS02003060 CONDUIT    397.03     0  05:49      0.95    0.26    0.66
  HS02004901HS02004770 CONDUIT      9.34     0  02:11      0.04    0.04    0.31
  HS02004876HS02004881 CONDUIT     31.53     0  02:14      0.52    0.34    0.09
  HS02004870HS02004876 CONDUIT     25.00     0  02:14      0.37    0.02    0.10
  HS02004842HS02004848 CONDUIT      4.94     0  02:23      0.03    0.00    0.27
  HS02004837HS02004842 CONDUIT      5.14     0  02:24      0.42    0.00    0.29
  HS02004830HS02004837 CONDUIT     22.43     0  02:12      0.43    0.02    0.07
  HS02004824HS02004830 CONDUIT     22.57     0  02:13      0.47    0.03    0.07
  HS02004817HS02004824 CONDUIT     35.56     0  02:15      0.17    0.02    0.39
  HS02004770HS02004777 CONDUIT     47.88     0  02:10      0.21    0.09    0.32
  HS02004799HS02004480 CONDUIT    118.35     0  02:12      0.57    0.15    0.30
  HS02004792HS02004799 CONDUIT    108.18     0  02:12      0.65    0.07    0.24
  HS02004788HS02004792 CONDUIT     62.90     0  02:13      0.80    0.04    0.11
  HS02004785HS02004788 CONDUIT     47.28     0  02:13      0.49    0.36    0.14
  HS02004777HS02004785 CONDUIT     47.24     0  02:12      0.26    0.06    0.26
  HS02004480HS02004478 CONDUIT    139.74     0  02:13      0.93    0.59    0.22
  HS02004479HS02004480 CONDUIT     21.88     0  02:14      0.15    0.02    0.29
  HS02004862HS02004870 CONDUIT     18.20     0  02:15      0.45    0.02    0.06
  HS02004848HS02004852 CONDUIT      7.27     0  02:13      0.30    0.01    0.04
  HS02004856HS02004862 CONDUIT     12.27     0  02:14      0.33    0.01    0.05
  HS02004852HS02004856 CONDUIT      7.22     0  02:15      0.11    0.01    0.09
  HS02004802HS02004478 CONDUIT     49.23     0  02:16      0.29    0.04    0.25
  HS02004478WS02006287 CONDUIT    187.89     0  02:14      1.27    0.05    0.16
  HS02004817HS02004807 CONDUIT     36.60     0  02:17      0.10    0.02    0.50
  HS02004807HS02004802 CONDUIT     48.89     0  02:16      0.24    0.09    0.29
  YS02001759YS02001757 CONDUIT    161.95     0  03:08      0.21    0.12    1.00
  YS02001762YS02001759 CONDUIT     94.98     0  03:09      0.17    0.11    1.00
  YS02001765YS02001762 CONDUIT     94.49     0  03:09      0.24    0.09    1.00
  YS02001770YS02001767 CONDUIT    110.48     0  03:10      0.30    0.44    1.00
  YS02001774YS02001770 CONDUIT     53.72     0  03:10      0.13    0.03    1.00
  YS02001779YS02001774 CONDUIT     49.42     0  03:10      0.08    0.02    1.00
  YS02001649YS02001757 CONDUIT    241.07     0  03:05      0.31    0.15    1.00
  YS02001767YS02001765 CONDUIT     88.10     0  02:44      0.27    0.11    1.00
  YS02006561YS02001783 CONDUIT    266.55     0  02:44      1.71    0.14    0.35
  YS02001783YS02001784 CONDUIT    266.56     0  02:44      1.17    0.37    0.46
  YS02001784YS02001785 CONDUIT    267.60     0  02:44      1.24    0.62    0.45
  YS02001788YS02001790 CONDUIT    267.71     0  02:45      1.80    0.20    0.34
  YS02001790YS02001791 CONDUIT    267.86     0  02:45      2.07    0.29    0.31
  YS02001791YS02001793 CONDUIT    271.80     0  02:38      4.17    0.12    0.54
  YS02001910YS02001907 CONDUIT     81.52     0  02:55      0.49    0.05    0.70
  YS02001786YS02001788 CONDUIT    267.64     0  02:45      1.66    0.52    0.36
  YS02001915YS02001910 CONDUIT     81.32     0  02:53      0.44    0.04    0.49
  YS02001918YS02001915 CONDUIT     27.73     0  03:03      0.44    0.02    0.23
  YS02001923YS02001920 CONDUIT     24.88     0  03:01      0.41    0.01    0.13
  YS02001926YS02001923 CONDUIT     24.84     0  03:01      0.45    0.04    0.12
  YS02001929YS02001926 CONDUIT     24.82     0  03:01      0.48    0.01    0.12
  YS02001920YS02001918 CONDUIT     27.74     0  03:02      0.43    0.03    0.14
  YS02001629YS02163301 CONDUIT     56.81     0  03:05      0.10    0.07    1.00
  YS02001619YS02001622 CONDUIT     72.73     0  03:13      0.63    0.11    1.00
  YS02001622YS02001625 CONDUIT     64.57     0  03:11      0.24    0.03    1.00
  YS02001625YS02001629 CONDUIT     84.58     0  03:15      0.24    0.04    1.00
  YS02163301YS02001633 CONDUIT     51.90     0  03:21      0.08    0.05    1.00
  YS02163601YS02164001 CONDUIT    112.54     0  03:08      0.14    0.10    1.00
  YS02164001YS02001641 CONDUIT    109.90     0  03:12      0.14    0.15    1.00
  YS02001641YS02001644 CONDUIT    107.24     0  03:12      0.15    0.35    1.00
  YS02001647YS02001649 CONDUIT    188.42     0  03:11      0.25    0.10    1.00
  YS02006553YS02006556 CONDUIT    181.39     0  02:47      0.28    0.16    0.78
  YS02006556YS02006558 CONDUIT    181.41     0  02:47      0.27    0.14    0.81
  YSB6556YSB1171       CONDUIT     11.90     0  02:15      0.05    0.01    0.56
  YS02001907YS02006553 CONDUIT    181.31     0  02:47      0.23    0.21    0.89
  YS02006558YS02006561 CONDUIT    266.56     0  02:44      2.20    0.59    0.44
  YS02001633YS02163601 CONDUIT    114.16     0  03:08      0.15    0.12    1.00
  YS02001644YS02001647 CONDUIT    160.38     0  03:01      0.23    0.09    1.00
  YS02001745YS02001748 CONDUIT    111.53     0  04:01      1.36    0.04    0.72
  YS02001748YS02001751 CONDUIT    130.54     0  04:02      1.06    0.07    0.99
  YS02001751YS02001754 CONDUIT     73.64     0  02:28      0.94    0.04    1.00
  YS02001754YS02001757 CONDUIT    107.25     0  03:07      0.33    0.04    1.00
  YS02001882YS02001884 CONDUIT      3.59     0  02:04      0.07    0.00    0.42
  YS02001884YS02001887 CONDUIT     10.52     0  02:06      0.05    0.01    0.52
  YS02001890YS02001895 CONDUIT    101.69     0  02:37      0.27    0.05    0.49
  YS02001895YS02001898 CONDUIT    101.63     0  02:38      0.46    0.18    0.35
  YS02001898YS02001901 CONDUIT    101.54     0  02:38      0.31    0.07    0.43
  YS02001901YS02001904 CONDUIT    101.10     0  02:40      0.27    0.16    0.48
  YS02001904YS02001907 CONDUIT    101.27     0  02:41      0.19    0.04    0.64
  YS02001887YS02001890 CONDUIT    102.11     0  02:36      0.22    0.17    0.57
  YS02001652YS02001649 CONDUIT    118.42     0  03:05      0.29    0.06    1.00
  YS02001655YS02001652 CONDUIT     83.20     0  02:33      1.01    0.04    1.00
  YS02001658YS02001655 CONDUIT    125.54     0  03:06      1.23    0.05    0.96
  YS02001661YS02001658 CONDUIT     91.53     0  03:59      1.39    0.04    0.75
  YS02001664YS02001661 CONDUIT     72.38     0  02:35      1.03    0.02    0.39
  YSB1154YSB6556       CONDUIT     11.68     0  02:12      0.19    0.02    0.45
  YSB1174YSB1171       CONDUIT     10.82     0  02:09      0.05    0.02    0.57
  YSB1171HS02004479    CONDUIT     21.66     0  02:13      0.54    0.01    0.44
  HS02004881HS02006253 CONDUIT     35.30     0  02:13      1.60    0.01    0.50
  YS02001793JiankangQianchi CONDUIT    784.21     0  03:23     12.73    0.06    0.86
  YS02001757CaochengTiaoxuchi CONDUIT    408.53     0  02:50      0.85    0.18    1.00
  WSF200WS02003060     CONDUIT    538.67     0  05:40      1.98    0.12    0.34
  1                    CONDUIT    943.13     0  05:43      3.27    0.33    0.39
  CC-Pump-1            PUMP       200.00     0  05:20              1.00
  CC-Pump-2            PUMP       200.00     0  05:20              1.00
  JK-Pump-1            PUMP       300.00     0  00:00              1.00
  JK-Pump-2            PUMP       683.00     0  00:00              1.00
  XR-Pump-1            PUMP        95.00     0  00:00              1.00
  XR-Pump-2            PUMP        95.00     0  00:00              1.00
  XR-Pump-3            PUMP        95.00     0  00:00              1.00
  XR-Pump-4            PUMP        95.00     0  00:00              1.00
  
  
  ***************************
  Flow Classification Summary
  ***************************
  
  -------------------------------------------------------------------------------------
                      Adjusted    ---------- Fraction of Time in Flow Class ---------- 
                       /Actual         Up    Down  Sub   Sup   Up    Down  Norm  Inlet 
  Conduit               Length    Dry  Dry   Dry   Crit  Crit  Crit  Crit  Ltd   Ctrl  
  -------------------------------------------------------------------------------------
  WS02003066WSF200        1.00   0.03  0.10  0.00  0.00  0.88  0.00  0.00  0.67  0.00
  WS02006287WS02006284    1.00   0.04  0.03  0.00  0.76  0.17  0.00  0.00  0.78  0.00
  WS02006284WS02006280    1.00   0.05  0.00  0.00  0.00  0.00  0.00  0.95  0.00  0.00
  WS02006280WS02006229    1.00   0.06  0.00  0.00  0.00  0.00  0.00  0.94  0.00  0.00
  WS02006229WS02006228    1.00   0.00  0.00  0.00  0.99  0.00  0.00  0.01  0.00  0.00
  WS02006256WS02006235    1.00   0.00  0.00  0.00  1.00  0.00  0.00  0.00  0.00  0.00
  WS02006253WS02006251    1.00   0.02  0.02  0.00  0.95  0.00  0.01  0.00  0.00  0.00
  WS02006252WS02006251    1.00   0.39  0.00  0.00  0.03  0.00  0.58  0.00  0.00  0.00
  WS02006251WS02006249    1.00   0.00  0.00  0.00  1.00  0.00  0.00  0.00  0.72  0.00
  WS02006249WS02006248    1.00   0.00  0.01  0.00  0.69  0.00  0.30  0.00  0.00  0.00
  WS02006248WS02006247    1.00   0.01  0.00  0.00  0.97  0.00  0.00  0.02  0.44  0.00
  WS02006247WS02006245    1.00   0.01  0.00  0.00  0.95  0.00  0.00  0.04  0.00  0.00
  WS02006245WS02006243    1.00   0.01  0.00  0.00  0.86  0.00  0.00  0.14  0.03  0.00
  WS02006243WS02006242    1.00   0.00  0.00  0.00  1.00  0.00  0.00  0.00  0.48  0.00
  WS02006242WS02006240    1.00   0.00  0.00  0.00  1.00  0.00  0.00  0.00  0.00  0.00
  WS02006240WS02006239    1.00   0.00  0.00  0.00  0.87  0.00  0.00  0.13  0.03  0.00
  WS02006239WS02006238    1.00   0.00  0.00  0.00  1.00  0.00  0.00  0.00  0.24  0.00
  WS02006238WS02006235    1.00   0.00  0.00  0.00  1.00  0.00  0.00  0.00  0.00  0.00
  WS02006235WS02006234    1.00   0.00  0.00  0.00  0.90  0.00  0.10  0.00  0.00  0.00
  WS02006234WS02006232    1.00   0.00  0.00  0.00  1.00  0.00  0.00  0.00  0.18  0.00
  WS02006232WS02006231    1.00   0.00  0.00  0.00  1.00  0.00  0.00  0.00  0.00  0.00
  WS02006231WS02006230    1.00   0.00  0.00  0.00  0.40  0.00  0.60  0.00  0.00  0.00
  WS02006230WS02006229    1.00   0.00  0.00  0.00  0.99  0.00  0.00  0.01  0.01  0.00
  WS02006228WS02006109    1.00   0.00  0.00  0.00  1.00  0.00  0.00  0.00  0.01  0.00
  WS02006116WS02004401    1.00   0.02  0.00  0.00  0.98  0.00  0.00  0.00  0.01  0.00
  WS02006115WS02006116    1.00   0.02  0.00  0.00  0.96  0.00  0.00  0.03  0.01  0.00
  WS02006113WS02006111    1.00   0.01  0.00  0.00  0.00  0.99  0.00  0.00  0.24  0.00
  WS02006112WS02006115    1.00   0.01  0.01  0.00  0.98  0.00  0.00  0.00  0.00  0.00
  WS02006111WS02006112    1.00   0.01  0.00  0.00  0.99  0.00  0.00  0.00  0.98  0.00
  WS02006110WS02006113    1.00   0.01  0.00  0.00  0.99  0.00  0.00  0.00  0.00  0.00
  WS02006109WS02006110    1.00   0.00  0.01  0.00  0.99  0.00  0.00  0.00  0.00  0.00
  WS02004411WS02004412    1.00   0.08  0.00  0.00  0.92  0.00  0.00  0.00  0.00  0.00
  WS02004401WS02004402    1.00   0.02  0.00  0.00  0.98  0.00  0.00  0.00  0.01  0.00
  WS02004413WS02003067    1.00   0.09  0.03  0.00  0.00  0.00  0.89  0.00  0.00  0.00
  WS02004412WS02004413    1.00   0.09  0.00  0.00  0.91  0.00  0.00  0.00  0.02  0.00
  WS02004410WS02004411    1.00   0.08  0.00  0.00  0.92  0.00  0.00  0.00  0.00  0.00
  WS02004409WS02004410    1.00   0.08  0.00  0.00  0.92  0.00  0.00  0.00  0.00  0.00
  WS02004407WS02004409    1.00   0.08  0.00  0.00  0.91  0.01  0.00  0.00  0.78  0.00
  WS02004406WS02004407    1.00   0.00  0.08  0.00  0.92  0.00  0.00  0.00  0.00  0.00
  WS02004405WS02004406    1.00   0.00  0.00  0.00  1.00  0.00  0.00  0.00  0.02  0.00
  WS02004404WS02004405    1.00   0.00  0.00  0.00  1.00  0.00  0.00  0.00  0.00  0.00
  WS02004403WS02004404    1.00   0.00  0.02  0.00  0.98  0.00  0.00  0.00  0.02  0.00
  WS02004402WS02004403    1.00   0.02  0.00  0.00  0.98  0.00  0.00  0.00  0.00  0.00
  WS02004139WS02001211    1.00   0.00  0.00  0.00  1.00  0.00  0.00  0.00  0.00  0.00
  WS02004138WS02004139    1.00   0.00  0.01  0.00  0.98  0.00  0.00  0.00  1.00  0.00
  WS02003067WS02003066    1.00   0.11  0.01  0.00  0.88  0.00  0.00  0.00  0.00  0.00
  WS02001213WS02003059    1.00   0.00  0.00  0.00  1.00  0.00  0.00  0.00  0.00  0.00
  WS02001212WS02001213    1.00   0.00  0.00  0.00  0.80  0.00  0.20  0.00  0.00  0.00
  WS02001211WS02001212    1.00   0.00  0.00  0.00  1.00  0.00  0.00  0.00  0.00  0.00
  WS02003072WS02003073    1.00   0.00  0.00  0.00  0.00  0.00  0.00  1.00  0.00  0.00
  WS02003069WS02003072    1.00   0.00  0.00  0.00  1.00  0.00  0.00  0.00  0.29  0.00
  WS02003060WS02003069    1.00   0.00  0.00  0.00  0.97  0.03  0.00  0.00  0.22  0.00
  WS02003059WS02003060    1.00   0.00  0.00  0.00  1.00  0.00  0.00  0.00  0.00  0.00
  HS02004901HS02004770    1.00   0.05  0.00  0.00  0.95  0.00  0.00  0.00  0.02  0.00
  HS02004876HS02004881    1.00   0.01  0.00  0.00  0.99  0.00  0.00  0.00  0.00  0.00
  HS02004870HS02004876    1.00   0.00  0.00  0.00  0.99  0.00  0.00  0.00  0.95  0.00
  HS02004842HS02004848    1.00   0.00  0.06  0.00  0.94  0.00  0.00  0.00  0.68  0.00
  HS02004837HS02004842    1.00   0.00  0.00  0.00  1.00  0.00  0.00  0.00  0.11  0.00
  HS02004830HS02004837    1.00   0.00  0.00  0.00  1.00  0.00  0.00  0.00  0.99  0.00
  HS02004824HS02004830    1.00   0.00  0.00  0.00  1.00  0.00  0.00  0.00  0.00  0.00
  HS02004817HS02004824    1.00   0.00  0.00  0.00  1.00  0.00  0.00  0.00  1.00  0.00
  HS02004770HS02004777    1.00   0.00  0.05  0.00  0.95  0.00  0.00  0.00  0.06  0.00
  HS02004799HS02004480    1.00   0.00  0.01  0.00  0.92  0.00  0.06  0.00  0.00  0.00
  HS02004792HS02004799    1.00   0.00  0.00  0.00  0.99  0.01  0.00  0.00  0.98  0.00
  HS02004788HS02004792    1.00   0.00  0.00  0.00  0.99  0.01  0.00  0.00  0.98  0.00
  HS02004785HS02004788    1.00   0.00  0.00  0.00  1.00  0.00  0.00  0.00  0.00  0.00
  HS02004777HS02004785    1.00   0.00  0.00  0.00  1.00  0.00  0.00  0.00  0.19  0.00
  HS02004480HS02004478    1.00   0.06  0.00  0.00  0.77  0.00  0.00  0.16  0.00  0.00
  HS02004479HS02004480    1.00   0.02  0.00  0.00  0.98  0.00  0.00  0.00  0.16  0.00
  HS02004862HS02004870    1.00   0.00  0.00  0.00  1.00  0.00  0.00  0.00  0.05  0.00
  HS02004848HS02004852    1.00   0.06  0.00  0.00  0.94  0.00  0.00  0.00  0.71  0.00
  HS02004856HS02004862    1.00   0.00  0.10  0.00  0.90  0.00  0.00  0.00  0.75  0.00
  HS02004852HS02004856    1.00   0.05  0.01  0.00  0.93  0.00  0.00  0.00  0.82  0.00
  HS02004802HS02004478    1.00   0.06  0.01  0.00  0.93  0.00  0.00  0.00  0.00  0.00
  HS02004478WS02006287    1.00   0.07  0.00  0.00  0.88  0.04  0.00  0.00  0.79  0.00
  HS02004817HS02004807    1.00   0.00  0.05  0.00  0.95  0.00  0.00  0.00  0.00  0.00
  HS02004807HS02004802    1.00   0.05  0.00  0.00  0.94  0.00  0.00  0.00  0.01  0.00
  YS02001759YS02001757    1.00   0.00  0.00  0.00  1.00  0.00  0.00  0.00  0.18  0.00
  YS02001762YS02001759    1.00   0.00  0.00  0.00  1.00  0.00  0.00  0.00  0.04  0.00
  YS02001765YS02001762    1.00   0.00  0.00  0.00  1.00  0.00  0.00  0.00  0.21  0.00
  YS02001770YS02001767    1.00   0.00  0.00  0.00  1.00  0.00  0.00  0.00  0.00  0.00
  YS02001774YS02001770    1.00   0.00  0.07  0.00  0.93  0.00  0.00  0.00  0.06  0.00
  YS02001779YS02001774    1.00   0.00  0.00  0.00  1.00  0.00  0.00  0.00  0.26  0.00
  YS02001649YS02001757    1.00   0.00  0.00  0.00  1.00  0.00  0.00  0.00  0.19  0.00
  YS02001767YS02001765    1.00   0.00  0.00  0.00  1.00  0.00  0.00  0.00  0.01  0.00
  YS02006561YS02001783    1.00   0.10  0.00  0.00  0.00  0.90  0.00  0.00  0.74  0.00
  YS02001783YS02001784    1.00   0.00  0.10  0.00  0.90  0.00  0.00  0.00  0.00  0.00
  YS02001784YS02001785    1.00   0.00  0.00  0.00  1.00  0.00  0.00  0.00  0.24  0.00
  YS02001788YS02001790    1.00   0.00  0.00  0.00  0.11  0.89  0.00  0.00  0.81  0.00
  YS02001790YS02001791    1.00   0.00  0.00  0.00  0.01  0.99  0.00  0.00  0.51  0.00
  YS02001791YS02001793    1.00   0.00  0.00  0.00  0.02  0.98  0.00  0.00  0.06  0.00
  YS02001910YS02001907    1.00   0.00  0.00  0.00  0.99  0.00  0.00  0.01  0.13  0.00
  YS02001786YS02001788    1.00   0.00  0.00  0.00  0.11  0.89  0.00  0.00  0.00  0.00
  YS02001915YS02001910    1.00   0.00  0.00  0.00  0.99  0.00  0.00  0.00  0.23  0.00
  YS02001918YS02001915    1.00   0.00  0.00  0.00  0.99  0.01  0.00  0.00  0.82  0.00
  YS02001923YS02001920    1.00   0.00  0.00  0.00  1.00  0.00  0.00  0.00  1.00  0.00
  YS02001926YS02001923    1.00   0.00  0.03  0.00  0.00  0.00  0.97  0.00  0.00  0.00
  YS02001929YS02001926    1.00   0.00  0.05  0.00  0.95  0.00  0.00  0.00  0.86  0.00
  YS02001920YS02001918    1.00   0.00  0.00  0.00  1.00  0.00  0.00  0.00  0.00  0.00
  YS02001629YS02163301    1.00   0.08  0.01  0.00  0.91  0.00  0.00  0.00  0.00  0.00
  YS02001619YS02001622    1.00   0.05  0.00  0.00  0.95  0.00  0.00  0.00  0.00  0.00
  YS02001622YS02001625    1.00   0.05  0.00  0.00  0.95  0.00  0.00  0.00  0.12  0.00
  YS02001625YS02001629    1.00   0.06  0.05  0.00  0.87  0.00  0.02  0.00  0.00  0.00
  YS02163301YS02001633    1.00   0.00  0.08  0.00  0.92  0.00  0.00  0.00  0.00  0.00
  YS02163601YS02164001    1.00   0.00  0.03  0.00  0.97  0.00  0.00  0.00  0.00  0.00
  YS02164001YS02001641    1.00   0.01  0.03  0.00  0.97  0.00  0.00  0.00  0.07  0.00
  YS02001641YS02001644    1.00   0.00  0.00  0.00  1.00  0.00  0.00  0.00  0.00  0.00
  YS02001647YS02001649    1.00   0.00  0.10  0.00  0.90  0.00  0.00  0.00  0.01  0.00
  YS02006553YS02006556    1.00   0.01  0.00  0.00  0.99  0.00  0.00  0.00  0.03  0.00
  YS02006556YS02006558    1.00   0.00  0.00  0.00  1.00  0.00  0.00  0.00  0.00  0.00
  YSB6556YSB1171          1.00   0.02  0.03  0.00  0.95  0.00  0.00  0.00  0.00  0.00
  YS02001907YS02006553    1.00   0.00  0.01  0.00  0.99  0.00  0.00  0.00  0.00  0.00
  YS02006558YS02006561    1.00   0.10  0.00  0.00  0.00  0.90  0.00  0.00  0.73  0.00
  YS02001633YS02163601    1.00   0.00  0.00  0.00  1.00  0.00  0.00  0.00  0.20  0.00
  YS02001644YS02001647    1.00   0.00  0.10  0.00  0.90  0.00  0.00  0.00  0.00  0.00
  YS02001745YS02001748    1.00   0.00  0.00  0.00  0.82  0.02  0.00  0.16  0.14  0.00
  YS02001748YS02001751    1.00   0.00  0.00  0.00  0.95  0.05  0.00  0.00  0.23  0.00
  YS02001751YS02001754    1.00   0.00  0.00  0.00  0.89  0.00  0.00  0.11  0.02  0.00
  YS02001754YS02001757    1.00   0.00  0.00  0.00  1.00  0.00  0.00  0.00  0.25  0.00
  YS02001882YS02001884    1.00   0.08  0.01  0.00  0.92  0.00  0.00  0.00  0.00  0.00
  YS02001884YS02001887    1.00   0.03  0.02  0.00  0.95  0.00  0.00  0.00  0.00  0.00
  YS02001890YS02001895    1.00   0.00  0.09  0.00  0.91  0.00  0.00  0.00  0.00  0.00
  YS02001895YS02001898    1.00   0.09  0.00  0.00  0.89  0.00  0.02  0.00  0.00  0.00
  YS02001898YS02001901    1.00   0.08  0.01  0.00  0.91  0.00  0.00  0.00  0.02  0.00
  YS02001901YS02001904    1.00   0.08  0.00  0.00  0.92  0.00  0.00  0.00  0.00  0.00
  YS02001904YS02001907    1.00   0.00  0.08  0.00  0.92  0.00  0.00  0.00  0.00  0.00
  YS02001887YS02001890    1.00   0.00  0.00  0.00  0.99  0.00  0.01  0.00  0.00  0.00
  YS02001652YS02001649    1.00   0.00  0.00  0.00  1.00  0.00  0.00  0.00  0.25  0.00
  YS02001655YS02001652    1.00   0.00  0.00  0.00  0.89  0.00  0.00  0.11  0.02  0.00
  YS02001658YS02001655    1.00   0.00  0.07  0.00  0.87  0.05  0.00  0.00  0.12  0.00
  YS02001661YS02001658    1.00   0.07  0.00  0.00  0.82  0.11  0.00  0.00  0.18  0.00
  YS02001664YS02001661    1.00   0.05  0.00  0.00  0.85  0.10  0.00  0.00  0.79  0.00
  YSB1154YSB6556          1.00   0.05  0.00  0.00  0.95  0.00  0.00  0.00  0.02  0.00
  YSB1174YSB1171          1.00   0.02  0.02  0.00  0.96  0.00  0.00  0.00  0.00  0.00
  YSB1171HS02004479       1.00   0.02  0.00  0.00  0.98  0.00  0.00  0.00  0.13  0.00
  HS02004881HS02006253    1.00   0.02  0.00  0.00  0.49  0.00  0.00  0.48  0.22  0.00
  YS02001793JiankangQianchi    1.00   0.00  0.00  0.00  0.58  0.42  0.00  0.00  0.62  0.00
  YS02001757CaochengTiaoxuchi    1.00   0.00  0.13  0.00  0.87  0.00  0.00  0.00  0.00  0.00
  WSF200WS02003060        1.00   0.00  0.03  0.00  0.73  0.24  0.00  0.00  0.61  0.00
  1                       1.00   0.00  0.00  0.00  0.00  1.00  0.00  0.00  0.46  0.00
  
  
  *************************
  Conduit Surcharge Summary
  *************************
  
  ----------------------------------------------------------------------------
                                                           Hours        Hours 
                         --------- Hours Full --------   Above Full   Capacity
  Conduit                Both Ends  Upstream  Dnstream   Normal Flow   Limited
  ----------------------------------------------------------------------------
  WS02006229WS02006228        0.72      0.77      0.72      1.86         0.72
  WS02006256WS02006235        4.14      4.15      6.07      3.01         0.01
  WS02006253WS02006251        0.38      0.38      0.41      0.01         0.01
  WS02006252WS02006251        0.47      0.47      0.72      0.65         0.01
  WS02006251WS02006249        0.39      0.39      0.42      0.43         0.34
  WS02006249WS02006248        0.37      0.37      0.42      1.56         0.01
  WS02006248WS02006247        0.40      0.40      0.46      0.01         0.01
  WS02006247WS02006245        0.44      0.47      0.44      1.71         0.44
  WS02006245WS02006243        0.45      0.45      0.46      0.16         0.23
  WS02006243WS02006242        0.48      0.48      0.60      0.01         0.01
  WS02006242WS02006240        0.49      0.49      0.72      0.76         0.01
  WS02006240WS02006239        0.50      0.51      0.59      0.43         0.32
  WS02006239WS02006238        0.71      0.73      0.77      0.45         0.38
  WS02006238WS02006235        0.74      0.74      0.84      0.01         0.01
  WS02006235WS02006234        0.53      0.53      0.71      4.05         0.01
  WS02006234WS02006232        0.62      0.62      0.86      0.26         0.25
  WS02006232WS02006231        0.28      0.28      0.86      0.28         0.01
  WS02006231WS02006230        0.23      0.23      0.28      4.36         0.01
  WS02006230WS02006229        1.41      1.72      1.41      4.82         1.41
  WS02006228WS02006109        0.75      1.14      0.75      3.14         0.75
  WS02006112WS02006115        0.01      0.01      0.25      0.01         0.01
  WS02006111WS02006112        0.01      0.01      2.33      0.01         0.01
  WS02006110WS02006113        0.01      0.01      0.92      0.01         0.01
  WS02006109WS02006110        0.25      0.25      1.14      0.25         0.01
  WS02004405WS02004406        0.01      0.01      0.01      0.23         0.01
  WS02004404WS02004405        0.01      0.01      0.01      4.93         0.01
  WS02003072WS02003073        0.01      0.01      0.01      3.65         0.01
  YS02001759YS02001757        4.99      4.99      5.30      0.01         0.01
  YS02001762YS02001759        4.85      4.85      4.99      0.01         0.01
  YS02001765YS02001762        4.67      4.67      4.85      0.01         0.01
  YS02001770YS02001767        4.55      4.55      4.58      0.01         0.19
  YS02001774YS02001770        4.46      4.46      4.79      0.01         0.01
  YS02001779YS02001774        3.95      3.95      4.79      0.01         0.01
  YS02001649YS02001757        4.89      4.89      5.30      0.01         0.01
  YS02001767YS02001765        4.58      4.58      4.67      0.01         0.01
  YS02001629YS02163301        4.40      4.40      4.50      0.01         0.01
  YS02001619YS02001622        1.01      1.01      1.80      0.01         0.01
  YS02001622YS02001625        1.80      1.80      4.24      0.01         0.01
  YS02001625YS02001629        1.02      1.02      4.24      0.01         0.01
  YS02163301YS02001633        4.50      4.50      4.69      0.01         0.01
  YS02163601YS02164001        4.67      4.67      4.88      0.01         0.01
  YS02164001YS02001641        4.67      4.67      4.73      0.01         0.01
  YS02001641YS02001644        4.73      4.73      4.75      0.01         0.24
  YS02001647YS02001649        4.21      4.21      4.89      0.01         0.01
  YS02001633YS02163601        4.62      4.62      4.88      0.01         0.01
  YS02001644YS02001647        4.21      4.21      4.75      0.01         0.01
  YS02001748YS02001751        0.01      0.01      2.14      0.01         0.01
  YS02001751YS02001754        2.14      2.14      4.06      0.01         0.01
  YS02001754YS02001757        4.22      4.22      5.30      0.01         0.01
  YS02001652YS02001649        4.25      4.25      4.89      0.01         0.01
  YS02001655YS02001652        2.71      2.71      4.17      0.01         0.01
  YS02001658YS02001655        0.01      0.01      2.71      0.01         0.01
  HS02004881HS02006253        0.01      0.01      0.28      0.01         0.01
  YS02001793JiankangQianchi        0.01      0.01      2.66      0.01         0.01
  YS02001757CaochengTiaoxuchi        0.45      0.45      5.30      0.01         0.01
  
  
  ***************
  Pumping Summary
  ***************
  
  ---------------------------------------------------------------------------------------------------------
                                                  Min       Avg       Max     Total     Power    % Time Off
                        Percent   Number of      Flow      Flow      Flow    Volume     Usage    Pump Curve
  Pump                 Utilized   Start-Ups       LPS       LPS       LPS  10^6 ltr     Kw-hr    Low   High
  ---------------------------------------------------------------------------------------------------------
  CC-Pump-1               25.53           1      0.00    170.81    200.00     1.200      2.51    0.0    0.0
  CC-Pump-2               12.76           2      0.00    109.71    200.00     0.480      1.13    0.0    0.0
  JK-Pump-1               53.19           5      0.00    139.64    300.00     2.145     37.90    0.0    0.0
  JK-Pump-2               29.78           5      0.00    130.93    683.00     1.318     26.82    0.0   95.2
  XR-Pump-1               82.99           5      0.00     85.53     95.00     1.938     38.50    0.0    0.0
  XR-Pump-2               80.85           5      0.00     85.40     95.00     1.881     37.78    0.0    0.0
  XR-Pump-3               68.09           5      0.00     84.17     95.00     1.568     31.87    0.0    0.0
  XR-Pump-4               68.09           5      0.00     84.17     95.00     1.568     31.87    0.0    0.0
  
  
  ***************************
  Link Pollutant Load Summary
  ***************************
  
  ------------------------------------------------------------------------------------------
                                 COD            SS            TN            TP         NH4-N
  Link                            kg            kg            kg            kg            kg
  ------------------------------------------------------------------------------------------
  WS02003066WSF200           280.356       463.429        11.815         1.232         6.767
  WS02006287WS02006284        99.379       168.004         6.110         0.713         3.678
  WS02006284WS02006280        99.806       168.691         6.150         0.717         3.703
  WS02006280WS02006229        99.788       168.660         6.149         0.717         3.702
  WS02006229WS02006228       278.477       460.007        11.452         1.183         6.532
  WS02006256WS02006235        81.878       133.096         2.854         0.275         1.587
  WS02006253WS02006251        13.132        23.153         0.400         0.036         0.214
  WS02006252WS02006251        90.522       146.187         2.270         0.175         1.148
  WS02006251WS02006249       101.344       165.621         2.627         0.208         1.343
  WS02006249WS02006248        97.819       159.889         2.535         0.201         1.295
  WS02006248WS02006247        98.037       160.260         2.541         0.202         1.299
  WS02006247WS02006245        98.369       160.795         2.552         0.203         1.304
  WS02006245WS02006243        98.824       161.567         2.561         0.203         1.309
  WS02006243WS02006242       100.599       164.520         2.612         0.208         1.336
  WS02006242WS02006240       103.292       168.972         2.686         0.214         1.375
  WS02006240WS02006239       106.173       173.746         2.768         0.221         1.419
  WS02006239WS02006238       109.511       179.123         2.888         0.233         1.486
  WS02006238WS02006235       111.478       182.186         2.961         0.240         1.527
  WS02006235WS02006234       179.623       292.863         5.369         0.473         2.869
  WS02006234WS02006232       179.791       293.125         5.381         0.475         2.877
  WS02006232WS02006231       179.499       292.650         5.366         0.473         2.868
  WS02006231WS02006230       179.418       292.542         5.363         0.473         2.867
  WS02006230WS02006229       179.381       292.466         5.360         0.472         2.865
  WS02006228WS02006109       277.862       459.046        11.394         1.175         6.495
  WS02006116WS02004401       285.293       471.318        12.004         1.251         6.873
  WS02006115WS02006116       285.743       472.023        12.031         1.254         6.889
  WS02006113WS02006111       284.944       470.385        12.088         1.262         6.930
  WS02006112WS02006115       286.306       472.942        12.070         1.259         6.913
  WS02006111WS02006112       284.767       470.109        12.071         1.260         6.919
  WS02006110WS02006113       285.191       470.789        12.106         1.265         6.941
  WS02006109WS02006110       285.868       471.886        12.162         1.272         6.976
  WS02004411WS02004412       282.101       466.269        11.907         1.242         6.821
  WS02004401WS02004402       284.652       470.281        11.964         1.246         6.849
  WS02004413WS02003067       280.561       463.743        11.819         1.232         6.769
  WS02004412WS02004413       281.533       465.356        11.884         1.240         6.808
  WS02004410WS02004411       282.446       466.815        11.919         1.244         6.828
  WS02004409WS02004410       282.799       467.384        11.935         1.245         6.837
  WS02004407WS02004409       282.918       467.555        11.936         1.245         6.837
  WS02004406WS02004407       282.797       467.327        11.924         1.244         6.829
  WS02004405WS02004406       283.915       469.134        11.995         1.252         6.872
  WS02004404WS02004405       284.209       469.567        11.984         1.250         6.864
  WS02004403WS02004404       283.505       468.443        11.899         1.239         6.810
  WS02004402WS02004403       284.110       469.424        11.935         1.243         6.832
  WS02004139WS02001211      1194.771      1913.136       112.880        14.070        70.430
  WS02004138WS02004139      1199.177      1920.194       113.289        14.121        70.685
  WS02003067WS02003066       280.409       463.516        11.819         1.233         6.770
  WS02001213WS02003059      1228.815      1967.587       116.174        14.483        72.490
  WS02001212WS02001213      1236.768      1980.321       116.927        14.576        72.960
  WS02001211WS02001212      1239.129      1984.101       117.150        14.604        73.100
  WS02003072WS02003073      1612.399      2596.147       137.950        16.961        85.485
  WS02003069WS02003072      1616.154      2602.187       138.308        17.005        85.709
  WS02003060WS02003069      1617.571      2604.461       138.428        17.020        85.783
  WS02003059WS02003060      1226.287      1963.537       115.918        14.450        72.330
  HS02004901HS02004770         2.177         3.896         0.043         0.003         0.020
  HS02004876HS02004881         8.767        15.729         0.279         0.025         0.150
  HS02004870HS02004876         6.857        12.227         0.250         0.024         0.137
  HS02004842HS02004848         1.184         2.041         0.027         0.002         0.012
  HS02004837HS02004842         5.822         9.439         0.493         0.060         0.305
  HS02004830HS02004837        47.731        77.375         4.216         0.522         2.621
  HS02004824HS02004830        48.482        78.577         4.288         0.531         2.666
  HS02004817HS02004824        53.144        86.875         4.414         0.540         2.731
  HS02004770HS02004777         8.415        15.160         0.186         0.012         0.084
  HS02004799HS02004480        38.972        66.747         1.878         0.206         1.090
  HS02004792HS02004799        36.674        62.304         1.882         0.210         1.101
  HS02004788HS02004792        24.732        41.848         1.504         0.173         0.898
  HS02004785HS02004788         9.904        17.554         0.337         0.031         0.179
  HS02004777HS02004785         9.410        16.758         0.292         0.026         0.151
  HS02004480HS02004478        45.741        79.321         1.947         0.208         1.114
  HS02004479HS02004480        11.283        19.778         0.500         0.056         0.294
  HS02004862HS02004870         5.187         9.040         0.216         0.022         0.121
  HS02004848HS02004852         1.328         2.310         0.030         0.002         0.013
  HS02004856HS02004862         2.656         4.820         0.056         0.004         0.026
  HS02004852HS02004856         1.326         2.306         0.030         0.002         0.013
  HS02004802HS02004478        53.938        89.168         4.190         0.508         2.581
  HS02004478WS02006287        99.556       168.290         6.126         0.714         3.688
  HS02004817HS02004807        51.766        84.671         4.283         0.524         2.649
  HS02004807HS02004802        54.710        90.400         4.264         0.517         2.627
  YS02001759YS02001757        76.416       124.476         1.895         0.142         0.966
  YS02001762YS02001759        41.326        67.968         1.175         0.095         0.618
  YS02001765YS02001762        40.960        67.273         1.194         0.097         0.631
  YS02001770YS02001767        38.590        63.362         0.905         0.059         0.447
  YS02001774YS02001770         4.557         7.576         0.120         0.009         0.062
  YS02001779YS02001774         3.819         6.289         0.176         0.019         0.102
  YS02001649YS02001757       112.300       177.229         2.715         0.208         1.339
  YS02001767YS02001765        41.090        67.419         1.214         0.100         0.643
  YS02006561YS02001783       170.719       276.703         5.445         0.500         2.971
  YS02001783YS02001784       170.655       276.611         5.441         0.499         2.969
  YS02001784YS02001785       178.030       288.426         6.154         0.589         3.414
  YS02001788YS02001790       178.714       289.539         6.227         0.598         3.460
  YS02001790YS02001791       179.709       291.138         6.326         0.610         3.522
  YS02001791YS02001793       179.655       291.061         6.321         0.610         3.519
  YS02001910YS02001907        63.703       102.034         3.005         0.312         1.740
  YS02001786YS02001788       178.275       288.827         6.183         0.592         3.432
  YS02001915YS02001910        63.602       101.816         2.966         0.306         1.714
  YS02001918YS02001915        36.736        57.464         2.334         0.272         1.412
  YS02001923YS02001920        16.710        25.413         0.399         0.030         0.201
  YS02001926YS02001923        16.333        24.805         0.360         0.025         0.177
  YS02001929YS02001926        16.040        24.325         0.328         0.021         0.157
  YS02001920YS02001918        36.657        57.335         2.317         0.269         1.400
  YS02001629YS02163301        18.547        29.421         0.433         0.027         0.200
  YS02001619YS02001622        21.343        33.629         0.500         0.030         0.229
  YS02001622YS02001625        20.514        32.423         0.479         0.029         0.219
  YS02001625YS02001629        19.485        30.902         0.454         0.028         0.209
  YS02163301YS02001633        18.413        29.230         0.429         0.027         0.198
  YS02163601YS02164001        52.986        83.304         1.256         0.093         0.617
  YS02164001YS02001641        52.612        82.720         1.235         0.090         0.605
  YS02001641YS02001644        52.954        83.288         1.231         0.090         0.602
  YS02001647YS02001649        84.278       132.094         1.849         0.132         0.893
  YS02006553YS02006556       125.828       203.432         4.349         0.418         2.420
  YS02006556YS02006558       125.797       203.376         4.313         0.413         2.396
  YSB6556YSB1171               5.483         9.719         0.182         0.019         0.103
  YS02001907YS02006553       125.792       203.377         4.351         0.419         2.422
  YS02006558YS02006561       170.724       276.702         5.445         0.500         2.970
  YS02001633YS02163601        53.544        84.103         1.238         0.089         0.603
  YS02001644YS02001647        85.030       133.173         1.867         0.133         0.902
  YS02001745YS02001748        30.308        48.894         0.711         0.043         0.346
  YS02001748YS02001751        32.782        52.936         0.979         0.078         0.516
  YS02001751YS02001754        31.987        51.713         1.011         0.084         0.541
  YS02001754YS02001757        33.043        53.442         1.180         0.106         0.649
  YS02001882YS02001884         0.423         0.657         0.014         0.001         0.008
  YS02001884YS02001887         1.625         2.603         0.048         0.004         0.026
  YS02001890YS02001895        62.900       102.465         1.357         0.107         0.686
  YS02001895YS02001898        62.775       102.285         1.350         0.107         0.682
  YS02001898YS02001901        62.674       102.145         1.348         0.106         0.681
  YS02001901YS02001904        62.799       102.378         1.373         0.110         0.697
  YS02001904YS02001907        63.735       103.921         1.480         0.123         0.765
  YS02001887YS02001890        63.747       103.774         1.422         0.115         0.726
  YS02001652YS02001649        29.850        47.927         0.896         0.077         0.457
  YS02001655YS02001652        30.697        49.211         0.921         0.079         0.469
  YS02001658YS02001655        30.044        48.057         0.773         0.059         0.372
  YS02001661YS02001658        29.106        46.447         0.657         0.043         0.297
  YS02001664YS02001661        29.159        46.461         0.659         0.044         0.298
  YSB1154YSB6556               4.958         8.883         0.118         0.011         0.062
  YSB1174YSB1171               3.874         6.980         0.129         0.013         0.073
  YSB1171HS02004479           11.152        19.578         0.486         0.054         0.285
  HS02004881HS02006253         9.831        17.727         0.297         0.026         0.158
  YS02001793JiankangQianchi       182.319       295.534         6.409         0.618         3.568
  YS02001757CaochengTiaoxuchi       215.283       345.430         5.423         0.416         2.739
  WSF200WS02003060           280.501       463.674        11.839         1.235         6.782
  1                         1620.469      2609.131       138.788        17.067        86.012
  CC-Pump-1                   64.333       103.829         1.608         0.124         0.812
  CC-Pump-2                   26.042        42.123         0.649         0.050         0.328
  JK-Pump-1                   87.933       143.012         3.072         0.296         1.709
  JK-Pump-2                   36.319        59.247         1.180         0.110         0.647
  XR-Pump-1                  338.227       541.603        31.933         3.980        19.923
  XR-Pump-2                  326.977       523.573        30.882         3.849        19.268
  XR-Pump-3                  268.791       430.398        25.407         3.167        15.853
  XR-Pump-4                  268.791       430.398        25.407         3.167        15.853
  

  Analysis begun on:  Sat Jul 10 21:41:59 2021
  Analysis ended on:  Sat Jul 10 21:42:01 2021
  Total elapsed time: 00:00:02