
  EPA STORM WATER MANAGEMENT MODEL - VERSION 5.1 (Build 5.3.0.dev0)
  --------------------------------------------------------------

  WARNING 04: minimum elevation drop used for Conduit WS02004404WS02004405
  WARNING 03: negative offset ignored for Link YS02001904YS02001907
  
  *********************************************************
  NOTE: The summary statistics displayed in this report are
  based on results found at every computational time step,  
  not just on results from each reporting time step.
  *********************************************************
  
  ****************
  Analysis Options
  ****************
  Flow Units ............... LPS
  Process Models:
    Rainfall/Runoff ........ YES
    RDII ................... NO
    Snowmelt ............... NO
    Groundwater ............ NO
    Flow Routing ........... YES
    Ponding Allowed ........ NO
    Water Quality .......... YES
  Infiltration Method ...... HORTON
  Flow Routing Method ...... DYNWAVE
  Surcharge Method ......... EXTRAN
  Starting Date ............ 08/28/2015 08:00:00
  Ending Date .............. 08/28/2015 15:50:00
  Antecedent Dry Days ...... 8.0
  Report Time Step ......... 00:01:00
  Wet Time Step ............ 00:01:00
  Dry Time Step ............ 00:01:00
  Routing Time Step ........ 5.00 sec
  Variable Time Step ....... YES
  Maximum Trials ........... 8
  Number of Threads ........ 4
  Head Tolerance ........... 0.001500 m
  
  
  **************************        Volume         Depth
  Runoff Quantity Continuity     hectare-m            mm
  **************************     ---------       -------
  Total Precipitation ......         2.984         6.533
  Evaporation Loss .........         0.000         0.000
  Infiltration Loss ........         0.622         1.361
  Surface Runoff ...........         1.778         3.894
  Final Storage ............         0.584         1.280
  Continuity Error (%) .....        -0.021
  
  
  **************************           COD            SS            TN            TP         NH4-N
  Runoff Quality Continuity             kg            kg            kg            kg            kg
  **************************    ----------    ----------    ----------    ----------    ----------
  Initial Buildup ..........     41378.656     70582.865      1804.177       168.684      1032.807
  Surface Buildup ..........        15.810        22.108         2.924         0.269         1.727
  Wet Deposition ...........         0.000         0.000         0.000         0.000         0.000
  Sweeping Removal .........         0.000         0.000         0.000         0.000         0.000
  Infiltration Loss ........        34.695        62.054         0.676         0.046         0.318
  BMP Removal ..............         0.000         0.000         0.000         0.000         0.000
  Surface Runoff ...........      1143.471      1982.833        22.893         1.498        10.804
  Remaining Buildup ........     40215.926     68559.439      1783.524       167.409      1023.408
  Continuity Error (%) .....         0.001         0.001         0.000         0.000         0.000
  
  
  **************************        Volume        Volume
  Flow Routing Continuity        hectare-m      10^6 ltr
  **************************     ---------     ---------
  Dry Weather Inflow .......         0.616         6.165
  Wet Weather Inflow .......         1.778        17.776
  Groundwater Inflow .......         0.000         0.000
  RDII Inflow ..............         0.000         0.000
  External Inflow ..........         0.102         1.024
  External Outflow .........         1.689        16.889
  Flooding Loss ............         0.458         4.584
  Evaporation Loss .........         0.000         0.000
  Exfiltration Loss ........         0.000         0.000
  Initial Stored Volume ....         0.076         0.761
  Final Stored Volume ......         0.515         5.149
  Continuity Error (%) .....        -3.486
  
  
  **************************           COD            SS            TN            TP         NH4-N
  Quality Routing Continuity            kg            kg            kg            kg            kg
  **************************    ----------    ----------    ----------    ----------    ----------
  Dry Weather Inflow .......      1541.201      2465.922       147.955        18.494        92.472
  Wet Weather Inflow .......      1143.111      1982.260        22.885         1.497        10.800
  Groundwater Inflow .......         0.000         0.000         0.000         0.000         0.000
  RDII Inflow ..............         0.000         0.000         0.000         0.000         0.000
  External Inflow ..........       183.418       293.469        17.608         2.201        11.005
  External Outflow .........      2054.670      3384.866       154.696        18.677        94.945
  Flooding Loss ............       283.003       486.617         6.826         0.550         3.501
  Exfiltration Loss ........         0.000         0.000         0.000         0.000         0.000
  Mass Reacted .............         0.000         0.000         0.000         0.000         0.000
  Initial Stored Mass ......         0.000         0.000         0.000         0.000         0.000
  Final Stored Mass ........       409.066       671.229        21.883         2.445        12.951
  Continuity Error (%) .....         4.219         4.196         2.676         2.351         2.520
  
  
  *************************
  Highest Continuity Errors
  *************************
  Node YS02001774 (33.94%)
  Node HS02004842 (22.93%)
  Node JK-storage (-16.02%)
  Node YS02001884 (15.33%)
  Node YSB1171 (5.03%)
  
  
  ***************************
  Time-Step Critical Elements
  ***************************
  Link WS02006252WS02006251 (63.91%)
  Link WS02006280WS02006229 (7.25%)
  Link WS02006238WS02006235 (5.04%)
  Link YS02006556YS02006558 (4.73%)
  Link YS02001793JiankangQianchi (4.40%)
  
  
  ********************************
  Highest Flow Instability Indexes
  ********************************
  Link WS02006113WS02006111 (44)
  Link WS02006111WS02006112 (28)
  Link YS02001779YS02001774 (24)
  Link YS02001774YS02001770 (23)
  Link YS02001619YS02001622 (22)
  
  
  *************************
  Routing Time Step Summary
  *************************
  Minimum Time Step           :     0.37 sec
  Average Time Step           :     1.27 sec
  Maximum Time Step           :     5.00 sec
  Percent in Steady State     :    -0.00
  Average Iterations per Step :     3.91
  Percent Not Converging      :    17.48
  
  
  ***************************
  Subcatchment Runoff Summary
  ***************************
  
  ------------------------------------------------------------------------------------------------------------------------------
                            Total      Total      Total      Total     Imperv       Perv      Total       Total     Peak  Runoff
                           Precip      Runon       Evap      Infil     Runoff     Runoff     Runoff      Runoff   Runoff   Coeff
  Subcatchment                 mm         mm         mm         mm         mm         mm         mm    10^6 ltr      LPS
  ------------------------------------------------------------------------------------------------------------------------------
  sub0                       6.53       0.00       0.00       0.44       6.03       0.02       6.05        0.00     1.99   0.926
  sub1                       6.53       0.00       0.00       0.71       5.73       0.01       5.74        0.04    11.56   0.879
  sub2                       6.53       0.00       0.00       2.41       4.04       0.01       4.04        0.04    10.40   0.619
  sub3                       6.53       0.00       0.00       2.41       4.00       0.01       4.01        0.09    21.72   0.613
  sub4                       6.53       0.00       0.00       0.71       5.58       0.01       5.59        0.12    24.58   0.856
  sub5                       6.53       0.00       0.00       0.45       5.98       0.01       6.00        0.07    20.56   0.918
  sub7                       6.53       0.00       0.00       0.57       5.88       0.02       5.90        0.02     6.98   0.903
  sub8                       6.53       0.00       0.00       0.57       5.87       0.02       5.89        0.04    12.52   0.902
  sub9                       6.53       0.00       0.00       0.57       5.87       0.02       5.89        0.03     9.31   0.901
  sub10                      6.53       0.00       0.00       0.51       5.93       0.01       5.94        0.07    20.42   0.909
  sub11                      6.53       0.00       0.00       0.51       5.94       0.02       5.96        0.07    23.44   0.912
  sub12                      6.53       0.00       0.00       0.82       5.64       0.02       5.66        0.05    18.94   0.867
  sub14                      6.53       0.00       0.00       0.57       5.87       0.01       5.89        0.06    18.24   0.901
  sub15                      6.53       0.00       0.00       1.94       4.51       0.01       4.53        0.08    24.88   0.693
  sub16                      6.53       0.00       0.00       2.13       4.34       0.02       4.36        0.05    16.89   0.668
  sub17                      6.53       0.00       0.00       2.07       4.40       0.02       4.42        0.04    13.76   0.677
  sub22                      6.53       0.00       0.00       2.79       3.68       0.02       3.70        0.23    79.92   0.566
  sub23                      6.53       0.00       0.00       2.40       4.07       0.02       4.09        0.20    67.75   0.626
  sub60                      6.53       0.00       0.00       0.78       4.28       0.00       4.28        1.30   125.77   0.655
  sub61                      6.53       0.00       0.00       1.11       4.48       0.00       4.48        1.38   158.03   0.686
  sub62                      6.53       0.00       0.00       0.52       4.83       0.00       4.83        1.49   161.41   0.740
  sub63                      6.53       0.00       0.00       1.89       3.96       0.00       3.96        1.20   147.61   0.606
  sub64                      6.53       0.00       0.00       0.98       4.10       0.00       4.10        1.25   119.46   0.628
  sub65                      6.53       0.00       0.00       0.85       4.16       0.00       4.16        1.28   121.22   0.636
  sub66                      6.53       0.00       0.00       1.89       3.55       0.00       3.55        1.09   109.52   0.544
  sub67                      6.53       0.00       0.00       0.52       5.22       0.00       5.22        1.61   207.53   0.799
  sub68                      6.53       0.00       0.00       0.91       4.74       0.00       4.74        1.46   174.80   0.726
  sub69                      6.53       0.00       0.00       0.98       5.02       0.00       5.03        1.17   173.79   0.769
  sub70                      6.53       5.13       0.00       3.94       6.42       0.03       6.45        1.48   145.33   0.553
  sub71                      6.53       0.00       0.00       0.52       4.66       0.00       4.66        1.10   112.60   0.713
  sub72                      6.53       0.00       0.00       0.46       3.46       0.00       3.46        0.70    54.63   0.529
  1                          6.53       6.28       0.00       1.32       6.76       1.24       8.00        1.88   142.31   0.625
  2                          6.53       0.00       0.00       2.92       1.51       0.45       1.95        0.78   107.22   0.299
  
  
  ****************************
  Subcatchment Washoff Summary
  ****************************
  
  ------------------------------------------------------------------------------------------
                                 COD            SS            TN            TP         NH4-N
  Subcatchment                    kg            kg            kg            kg            kg
  ------------------------------------------------------------------------------------------
  sub0                         1.069         2.027         0.018         0.001         0.009
  sub1                         4.308         8.259         0.080         0.005         0.038
  sub2                         2.457         4.530         0.054         0.004         0.024
  sub3                         5.942        10.805         0.128         0.008         0.058
  sub4                         9.399        17.881         0.191         0.011         0.091
  sub5                         9.956        18.857         0.174         0.013         0.084
  sub7                         2.283         4.470         0.043         0.003         0.021
  sub8                         3.423         6.831         0.069         0.004         0.033
  sub9                         2.907         5.724         0.056         0.003         0.027
  sub10                        8.248        15.833         0.150         0.010         0.072
  sub11                        8.183        15.941         0.152         0.010         0.073
  sub12                        6.887        13.208         0.122         0.009         0.059
  sub14                        6.182        12.055         0.117         0.008         0.056
  sub15                        7.274        13.515         0.141         0.010         0.066
  sub16                        4.645         8.647         0.089         0.007         0.041
  sub17                        4.260         7.859         0.078         0.006         0.037
  sub22                       21.492        39.095         0.413         0.031         0.191
  sub23                       13.124        24.773         0.287         0.018         0.130
  sub60                       73.481       126.471         1.542         0.090         0.736
  sub61                       93.048       159.880         1.787         0.117         0.857
  sub62                       97.894       171.225         1.994         0.120         0.953
  sub63                       69.583       118.047         1.475         0.100         0.675
  sub64                       88.239       146.171         1.675         0.118         0.794
  sub65                       90.445       150.474         1.731         0.119         0.822
  sub66                       52.799        88.420         1.160         0.073         0.536
  sub67                      147.506       256.641         2.666         0.190         1.283
  sub68                      104.402       181.638         2.070         0.134         0.983
  sub69                       97.667       172.927         1.873         0.127         0.890
  sub70                      148.755       262.424         3.088         0.206         1.428
  sub71                       64.672       113.967         1.407         0.077         0.670
  sub72                       43.739        71.047         0.852         0.056         0.409
  1                           83.426       148.340         1.787         0.120         0.814
  2                           12.198        20.202         0.387         0.023         0.162
  ------------------------------------------------------------------------------------------
  System                    1389.893      2418.185        27.855         1.831        13.122
  
  
  ******************
  Node Depth Summary
  ******************
  
  ---------------------------------------------------------------------------------
                                 Average  Maximum  Maximum  Time of Max    Reported
                                   Depth    Depth      HGL   Occurrence   Max Depth
  Node                 Type       Meters   Meters   Meters  days hr:min      Meters
  ---------------------------------------------------------------------------------
  WS02001211           JUNCTION     0.71     0.80     5.63     0  04:52        0.80
  WS02001212           JUNCTION     0.43     0.51     5.57     0  04:52        0.51
  WS02001213           JUNCTION     0.67     0.76     5.52     0  04:51        0.76
  WS02003069           JUNCTION     0.48     0.59     5.17     0  04:51        0.59
  WS02003072           JUNCTION     0.54     0.65     5.02     0  04:51        0.65
  WS02003073           JUNCTION     0.33     0.40     4.46     0  04:52        0.40
  WS02003060           JUNCTION     0.43     0.52     5.45     0  04:50        0.52
  WS02003066           JUNCTION     0.24     0.30     5.85     0  04:45        0.30
  WS02003059           JUNCTION     0.73     0.81     5.50     0  04:51        0.81
  WS02003067           JUNCTION     0.58     0.70     6.02     0  04:45        0.70
  WS02004401           JUNCTION     0.69     0.86     6.86     0  04:43        0.86
  WS02004402           JUNCTION     0.72     0.89     6.85     0  04:43        0.89
  WS02004403           JUNCTION     0.74     0.90     6.83     0  04:43        0.90
  WS02004404           JUNCTION     0.82     0.97     6.82     0  04:43        0.97
  WS02004406           JUNCTION     0.82     0.96     6.79     0  03:38        0.96
  WS02004409           JUNCTION     0.51     0.68     6.45     0  04:44        0.68
  WS02004410           JUNCTION     0.53     0.69     6.41     0  04:44        0.69
  WS02004411           JUNCTION     0.54     0.70     6.38     0  04:44        0.70
  WS02004412           JUNCTION     0.55     0.70     6.34     0  04:45        0.70
  WS02004413           JUNCTION     0.71     0.86     6.33     0  04:45        0.86
  WS02004405           JUNCTION     0.81     0.96     6.81     0  03:38        0.96
  WS02006109           JUNCTION     0.78     1.01     7.62     0  03:33        1.00
  WS02006110           JUNCTION     0.77     0.95     7.53     0  07:12        0.94
  WS02006111           JUNCTION     0.23     0.30     7.00     0  03:35        0.29
  WS02006112           JUNCTION     0.87     1.07     6.96     0  04:53        1.06
  WS02006113           JUNCTION     0.35     0.47     7.36     0  03:34        0.47
  WS02006115           JUNCTION     0.58     0.76     6.90     0  04:42        0.76
  WS02006116           JUNCTION     0.67     0.84     6.88     0  04:43        0.84
  WS02006230           JUNCTION     0.78     1.14     7.89     0  03:32        1.14
  WS02006231           JUNCTION     0.52     0.89     8.01     0  03:33        0.88
  WS02006232           JUNCTION     0.67     1.08     8.12     0  03:33        1.07
  WS02006234           JUNCTION     0.61     1.09     8.25     0  03:33        1.08
  WS02006235           JUNCTION     0.65     1.17     8.34     0  03:33        1.16
  WS02006238           JUNCTION     0.68     1.21     8.35     0  03:33        1.20
  WS02006240           JUNCTION     0.59     1.15     8.44     0  07:21        1.14
  WS02006242           JUNCTION     0.65     1.23     8.50     0  03:33        1.22
  WS02006243           JUNCTION     0.55     1.14     8.56     0  07:12        1.13
  WS02006245           JUNCTION     0.53     1.12     8.60     0  04:47        1.11
  WS02006247           JUNCTION     0.54     1.14     8.64     0  07:12        1.13
  WS02006248           JUNCTION     0.49     1.08     8.67     0  04:29        1.08
  WS02006249           JUNCTION     0.52     1.09     8.69     0  03:30        1.09
  WS02006239           JUNCTION     0.64     1.18     8.39     0  03:33        1.18
  WS02006251           JUNCTION     0.50     1.27     8.94     0  04:29        1.24
  WS02006252           JUNCTION     0.35     0.82     9.06     0  04:29        0.78
  WS02006253           JUNCTION     0.53     1.35     9.00     0  03:32        1.29
  WS02006256           JUNCTION     1.45     2.35     9.28     0  00:00        2.35
  WS02004138           JUNCTION     0.16     0.20     7.45     0  00:00        0.19
  WS02004139           JUNCTION     0.65     0.74     5.65     0  04:53        0.74
  WS02004407           JUNCTION     0.23     0.30     6.61     0  04:43        0.30
  WS02006228           JUNCTION     0.78     1.06     7.71     0  03:33        1.04
  WS02006229           JUNCTION     0.76     1.05     7.75     0  03:33        1.05
  WS02006280           JUNCTION     0.05     0.18     8.45     0  02:12        0.18
  WS02006284           JUNCTION     0.35     0.53     8.93     0  02:12        0.53
  WS02006287           JUNCTION     0.07     0.26     9.22     0  02:12        0.26
  WSF200               JUNCTION     0.22     0.31     5.54     0  04:44        0.31
  HS02004901           JUNCTION     0.11     0.27    10.09     0  02:10        0.27
  HS02004881           JUNCTION     0.01     0.03     9.06     0  02:10        0.03
  HS02004876           JUNCTION     0.03     0.11     9.14     0  02:06        0.11
  HS02004870           JUNCTION     0.01     0.05     9.34     0  02:12        0.05
  HS02004862           JUNCTION     0.01     0.06     9.45     0  02:13        0.06
  HS02004856           JUNCTION     0.07     0.12     9.54     0  02:12        0.12
  HS02004852           JUNCTION     0.01     0.04     9.55     0  02:13        0.04
  HS02004848           JUNCTION     0.01     0.04     9.64     0  02:12        0.04
  HS02004842           JUNCTION     0.33     0.37     9.64     0  02:12        0.37
  HS02004837           JUNCTION     0.03     0.06     9.64     0  02:11        0.06
  HS02004830           JUNCTION     0.04     0.07     9.54     0  02:12        0.07
  HS02004824           JUNCTION     0.02     0.05     9.45     0  02:14        0.05
  HS02004817           JUNCTION     0.42     0.57     9.42     0  02:12        0.57
  HS02004807           JUNCTION     0.11     0.24     9.41     0  02:12        0.24
  HS02004802           JUNCTION     0.15     0.28     9.41     0  02:12        0.28
  HS02004799           JUNCTION     0.09     0.31     9.53     0  02:10        0.31
  HS02004792           JUNCTION     0.02     0.13     9.65     0  02:10        0.13
  HS02004788           JUNCTION     0.02     0.09     9.99     0  02:10        0.09
  HS02004785           JUNCTION     0.03     0.16    10.07     0  02:10        0.16
  HS02004777           JUNCTION     0.13     0.29    10.09     0  02:10        0.29
  HS02004770           JUNCTION     0.10     0.26    10.09     0  02:10        0.26
  HS02004480           JUNCTION     0.06     0.25     9.49     0  02:11        0.25
  HS02004479           JUNCTION     0.10     0.29     9.49     0  02:11        0.29
  HS02004478           JUNCTION     0.05     0.16     9.39     0  02:12        0.16
  YS02001745           JUNCTION     0.64     0.85     8.37     0  05:11        0.85
  YS02001748           JUNCTION     1.04     1.30     8.38     0  03:43        1.29
  YS02001751           JUNCTION     1.22     1.52     8.39     0  03:41        1.50
  YS02001754           JUNCTION     1.47     1.79     8.40     0  03:41        1.77
  YS02001762           JUNCTION     1.66     2.02     8.42     0  03:43        1.99
  YS02001765           JUNCTION     1.62     1.97     8.42     0  03:43        1.93
  YS02001767           JUNCTION     1.58     1.92     8.41     0  03:27        1.89
  YS02001770           JUNCTION     1.58     1.90     8.40     0  03:26        1.89
  YS02001774           JUNCTION     1.64     1.97     8.39     0  03:16        1.96
  YS02001779           JUNCTION     1.40     1.68     8.37     0  03:16        1.68
  YS02001882           JUNCTION     0.31     0.61     7.32     0  02:45        0.61
  YS02001884           JUNCTION     0.41     0.70     7.32     0  02:41        0.70
  YS02001759           JUNCTION     1.70     2.05     8.42     0  03:43        2.03
  YS02001887           JUNCTION     0.49     0.78     7.32     0  02:44        0.78
  YS02001890           JUNCTION     0.52     0.81     7.32     0  02:43        0.81
  YS02001898           JUNCTION     0.29     0.57     7.31     0  02:42        0.57
  YS02001901           JUNCTION     0.40     0.70     7.30     0  02:42        0.69
  YS02001904           JUNCTION     0.38     0.68     7.31     0  02:44        0.67
  YS02001907           JUNCTION     0.72     1.03     7.32     0  02:45        1.01
  YS02001910           JUNCTION     0.50     0.80     7.30     0  02:41        0.79
  YS02001915           JUNCTION     0.30     0.58     7.30     0  02:40        0.58
  YS02001918           JUNCTION     0.10     0.23     7.30     0  02:42        0.23
  YS02001619           JUNCTION     1.18     1.48     8.41     0  03:20        1.46
  YS02001629           JUNCTION     1.53     1.85     8.40     0  03:25        1.83
  YS02001641           JUNCTION     1.63     1.94     8.38     0  03:23        1.92
  YS02001644           JUNCTION     1.64     1.92     8.35     0  03:20        1.92
  YS02001652           JUNCTION     1.48     2.09     8.68     0  03:27        1.85
  YS02001655           JUNCTION     1.25     2.09     8.94     0  03:27        1.64
  YS02001920           JUNCTION     0.20     0.30     7.31     0  02:42        0.30
  YS02001923           JUNCTION     0.08     0.11     7.37     0  03:01        0.11
  YS02001926           JUNCTION     0.16     0.21     7.66     0  03:01        0.21
  YS02001929           JUNCTION     0.08     0.11     7.80     0  03:01        0.11
  YS02001658           JUNCTION     0.98     2.08     9.22     0  03:27        1.40
  YS02001661           JUNCTION     0.75     2.05     9.45     0  03:27        1.18
  YS02001664           JUNCTION     0.29     0.56     8.49     0  03:26        0.56
  YS02001622           JUNCTION     1.20     1.50     8.41     0  03:20        1.48
  YS02001633           JUNCTION     1.62     1.95     8.40     0  03:25        1.92
  YS02001649           JUNCTION     1.67     2.05     8.44     0  03:25        2.01
  YS02001757           JUNCTION     1.80     2.16     8.42     0  03:43        2.13
  YS02001895           JUNCTION     0.28     0.56     7.31     0  02:42        0.56
  YS02001625           JUNCTION     1.48     1.78     8.38     0  03:20        1.78
  YS02163301           JUNCTION     1.56     1.89     8.41     0  03:25        1.86
  YS02163601           JUNCTION     1.67     2.00     8.40     0  03:25        1.97
  YS02164001           JUNCTION     1.61     1.92     8.38     0  03:25        1.91
  YS02001647           JUNCTION     1.47     1.80     8.41     0  03:25        1.77
  YSB1154              JUNCTION     0.23     0.43     9.49     0  02:11        0.43
  YSB6556              JUNCTION     0.13     0.32     9.49     0  02:11        0.32
  YSB1174              JUNCTION     0.19     0.38     9.49     0  02:11        0.38
  YSB1171              JUNCTION     0.39     0.59     9.49     0  02:10        0.59
  YS02006553           JUNCTION     0.72     1.03     7.31     0  02:44        1.01
  YS02006561           JUNCTION     0.16     0.32     6.98     0  02:46        0.32
  YS02006556           JUNCTION     0.69     0.99     7.30     0  02:45        0.98
  YS02006558           JUNCTION     0.73     1.03     7.30     0  02:42        1.03
  YS02001783           JUNCTION     0.28     0.94     7.08     0  03:00        0.78
  YS02001784           JUNCTION     0.32     0.99     7.06     0  03:00        0.81
  YS02001786           JUNCTION     0.28     0.95     6.98     0  03:00        0.80
  YS02001788           JUNCTION     0.22     0.98     6.95     0  03:00        0.79
  YS02001790           JUNCTION     0.29     1.96     7.60     0  04:10        1.07
  YS02001791           JUNCTION     0.24     1.81     7.28     0  04:08        1.18
  YS02001793           JUNCTION     0.32     2.22     7.05     0  04:06        1.79
  WSC                  OUTFALL      0.33     0.40     1.07     0  04:52        0.40
  JK-storage           STORAGE      1.80     5.80     6.60     0  02:58        5.80
  CC-storage           STORAGE      1.07     1.37     8.37     0  05:10        1.37
  XR-storage           STORAGE      2.89     6.78     4.78     0  07:06        6.78
  
  
  *******************
  Node Inflow Summary
  *******************
  
  -------------------------------------------------------------------------------------------------
                                  Maximum  Maximum                  Lateral       Total        Flow
                                  Lateral    Total  Time of Max      Inflow      Inflow     Balance
                                   Inflow   Inflow   Occurrence      Volume      Volume       Error
  Node                 Type           LPS      LPS  days hr:min    10^6 ltr    10^6 ltr     Percent
  -------------------------------------------------------------------------------------------------
  WS02001211           JUNCTION      7.35   389.66     0  05:10       0.207         8.6       0.473
  WS02001212           JUNCTION      0.00   391.99     0  05:10           0        8.56       0.285
  WS02001213           JUNCTION      0.00   394.25     0  05:10           0        8.54       0.336
  WS02003069           JUNCTION      0.32   952.79     0  04:50     0.00902          17       0.208
  WS02003072           JUNCTION      0.00   952.78     0  04:51           0        16.9       0.250
  WS02003073           JUNCTION      1.82   954.60     0  04:51      0.0514        16.9       0.289
  WS02003060           JUNCTION     16.53   952.48     0  04:50       0.466          17       0.197
  WS02003066           JUNCTION      0.00   548.67     0  04:45           0        8.06       0.057
  WS02003059           JUNCTION      0.00   397.96     0  05:09           0        8.52       0.471
  WS02003067           JUNCTION      0.00   548.66     0  04:45           0        8.07       0.118
  WS02004401           JUNCTION      0.00   551.73     0  03:37           0        8.31       0.259
  WS02004402           JUNCTION      0.00   550.52     0  03:37           0        8.29       0.245
  WS02004403           JUNCTION      0.00   549.99     0  03:37           0        8.27       0.222
  WS02004404           JUNCTION      0.16   549.28     0  03:38     0.00457        8.25       0.167
  WS02004406           JUNCTION      0.00   549.39     0  03:38           0        8.22       0.406
  WS02004409           JUNCTION      0.00   548.78     0  04:43           0        8.18       0.205
  WS02004410           JUNCTION      0.00   548.73     0  04:44           0        8.16       0.232
  WS02004411           JUNCTION      0.00   548.71     0  04:44           0        8.14       0.238
  WS02004412           JUNCTION      0.00   548.68     0  04:45           0        8.12       0.257
  WS02004413           JUNCTION      0.00   548.67     0  04:45           0         8.1       0.380
  WS02004405           JUNCTION      0.04   549.20     0  03:38     0.00107        8.24       0.253
  WS02006109           JUNCTION      1.23   567.07     0  03:33      0.0347        8.39       0.244
  WS02006110           JUNCTION      0.00   567.13     0  03:33           0        8.37       0.235
  WS02006111           JUNCTION      0.00   590.78     0  03:34           0        8.34       0.049
  WS02006112           JUNCTION     13.76   573.52     0  03:35      0.0379        8.38       0.334
  WS02006113           JUNCTION      0.00   567.65     0  03:33           0        8.35       0.117
  WS02006115           JUNCTION      0.00   573.58     0  03:35           0        8.35       0.245
  WS02006116           JUNCTION      0.00   556.96     0  03:35           0        8.33       0.238
  WS02006230           JUNCTION     10.28   537.86     0  07:12        0.29        7.19       0.165
  WS02006231           JUNCTION      0.00   528.47     0  07:12           0        6.91       0.170
  WS02006232           JUNCTION      0.00   528.95     0  07:12           0        6.92       0.239
  WS02006234           JUNCTION      0.00   530.30     0  07:12           0        6.93       0.120
  WS02006235           JUNCTION      0.00   532.04     0  07:12           0        6.99       0.152
  WS02006238           JUNCTION      0.00   414.06     0  03:50           0        4.56       0.177
  WS02006240           JUNCTION      0.00   414.19     0  03:50           0        4.53       0.271
  WS02006242           JUNCTION      0.00   413.99     0  03:50           0        4.53       0.310
  WS02006243           JUNCTION      0.00   414.13     0  03:50           0        4.53       0.132
  WS02006245           JUNCTION      0.00   414.52     0  03:50           0        4.53       0.208
  WS02006247           JUNCTION      0.00   414.49     0  03:50           0        4.54       0.151
  WS02006248           JUNCTION      0.00   415.02     0  03:50           0        4.54       0.088
  WS02006249           JUNCTION      0.00   419.40     0  05:40           0        4.71       0.204
  WS02006239           JUNCTION      0.00   414.32     0  03:50           0        4.55       0.187
  WS02006251           JUNCTION      0.08   411.67     0  06:20     0.00217        4.77       0.168
  WS02006252           JUNCTION      0.00   400.00     0  03:50           0         4.5       0.010
  WS02006253           JUNCTION      1.99   137.13     0  03:31      0.0049       0.273       1.393
  WS02006256           JUNCTION      0.00   983.00     0  00:00           0        5.59       0.002
  WS02004138           JUNCTION      0.00   380.00     0  00:00           0        8.44       0.070
  WS02004139           JUNCTION      0.32   396.51     0  00:00     0.00905        8.44       0.542
  WS02004407           JUNCTION      0.00   548.79     0  04:43           0        8.19       0.091
  WS02006228           JUNCTION      0.00   566.18     0  03:33           0        8.37       0.196
  WS02006229           JUNCTION      0.00   564.72     0  03:34           0        8.39       0.165
  WS02006280           JUNCTION      0.00   320.99     0  02:12           0        1.22       0.005
  WS02006284           JUNCTION      0.10   320.97     0  02:12      0.0027        1.22       0.099
  WS02006287           JUNCTION      0.00   320.85     0  02:12           0        1.22       0.059
  WSF200               JUNCTION      0.00   548.67     0  04:45           0        8.06       0.051
  HS02004901           JUNCTION     16.89    16.89     0  02:06      0.0456      0.0458       3.989
  HS02004881           JUNCTION      6.98    63.68     0  02:10      0.0199       0.212       0.072
  HS02004876           JUNCTION     11.56    56.94     0  02:12      0.0382       0.192       0.278
  HS02004870           JUNCTION     12.52    45.62     0  02:12      0.0376       0.154       0.068
  HS02004862           JUNCTION     10.60    33.82     0  02:12      0.0433       0.117       0.145
  HS02004856           JUNCTION      9.31    23.33     0  02:11      0.0283      0.0748       1.963
  HS02004852           JUNCTION      0.00    14.54     0  02:12           0      0.0465       0.111
  HS02004848           JUNCTION     21.72    21.72     0  02:14      0.0902      0.0902       0.048
  HS02004842           JUNCTION      0.00     7.85     0  02:22           0      0.0567      29.756
  HS02004837           JUNCTION     26.77    33.45     0  02:11       0.245       0.288       0.282
  HS02004830           JUNCTION      0.15    33.57     0  02:12     0.00423       0.279       0.444
  HS02004824           JUNCTION     24.63    58.00     0  02:14       0.118       0.395       0.136
  HS02004817           JUNCTION      0.60    58.59     0  02:14      0.0169       0.412       4.219
  HS02004807           JUNCTION     23.44    80.29     0  02:13      0.0692       0.464       0.918
  HS02004802           JUNCTION      0.00    80.78     0  02:14           0        0.46       0.890
  HS02004799           JUNCTION     18.24   204.79     0  02:10       0.056       0.657       0.363
  HS02004792           JUNCTION     80.20   186.81     0  02:09       0.241       0.601       0.067
  HS02004788           JUNCTION     26.55   108.53     0  02:10       0.125       0.361       0.108
  HS02004785           JUNCTION      0.15    82.35     0  02:10     0.00423       0.238       0.202
  HS02004777           JUNCTION      0.03    82.67     0  02:08    0.000846       0.238       2.223
  HS02004770           JUNCTION     67.75    83.70     0  02:08       0.195       0.239       1.311
  HS02004480           JUNCTION      0.00   241.88     0  02:11           0       0.771       0.101
  HS02004479           JUNCTION      0.00    37.81     0  02:12           0       0.126       0.580
  HS02004478           JUNCTION      0.00   320.82     0  02:12           0        1.22       0.048
  YS02001745           JUNCTION    125.78   150.21     0  03:01         1.3         1.3       0.502
  YS02001748           JUNCTION      0.04   355.83     0  02:40     0.00127        1.31       1.504
  YS02001751           JUNCTION      0.01   405.75     0  02:39     0.00031        1.29       1.592
  YS02001754           JUNCTION      0.26   206.10     0  02:41     0.00733        1.26       1.968
  YS02001762           JUNCTION      0.00   204.35     0  02:44           0        1.41       1.503
  YS02001765           JUNCTION      0.00   198.23     0  02:44           0        1.41       1.743
  YS02001767           JUNCTION      0.54   193.99     0  02:44      0.0151        1.43       2.555
  YS02001770           JUNCTION    161.56   194.45     0  02:38        1.49        1.51       2.121
  YS02001774           JUNCTION      0.00    53.66     0  02:09           0      0.0735      51.369
  YS02001779           JUNCTION      0.01    38.20     0  02:38    0.000141       0.032      90.922
  YS02001882           JUNCTION      0.00    10.30     0  02:44           0        0.01      22.908
  YS02001884           JUNCTION      0.00    15.36     0  02:03           0      0.0344      18.111
  YS02001759           JUNCTION    158.07   366.25     0  02:44        1.38        2.76       0.833
  YS02001887           JUNCTION    207.98   215.85     0  02:33        1.62        1.64       0.464
  YS02001890           JUNCTION      0.00   213.64     0  02:33           0        1.61       0.518
  YS02001898           JUNCTION      0.00   217.03     0  02:42           0         1.6       0.160
  YS02001901           JUNCTION      0.00   219.05     0  02:42           0        1.59       0.376
  YS02001904           JUNCTION      0.00   226.18     0  02:42           0        1.59       0.348
  YS02001907           JUNCTION      0.00   423.63     0  02:45           0        3.46       0.656
  YS02001910           JUNCTION      0.00   186.15     0  02:55           0        1.88       0.573
  YS02001915           JUNCTION    112.62   174.46     0  02:46         1.1        1.88       0.269
  YS02001918           JUNCTION      0.00    60.27     0  02:55           0       0.782       0.182
  YS02001619           JUNCTION    109.52   109.52     0  02:44        1.09        1.09       1.076
  YS02001629           JUNCTION      0.00   201.64     0  02:47           0        1.01       2.817
  YS02001641           JUNCTION      0.00   260.94     0  03:02           0         2.2       0.953
  YS02001644           JUNCTION    119.50   379.16     0  03:02        1.25        3.67       0.709
  YS02001652           JUNCTION      0.00   204.13     0  02:42           0        1.16       2.083
  YS02001655           JUNCTION      0.15   350.22     0  02:36     0.00434        1.18       1.813
  YS02001920           JUNCTION      2.87    57.55     0  03:01      0.0809       0.784       0.303
  YS02001923           JUNCTION      0.04    54.68     0  03:01     0.00106       0.703       0.055
  YS02001926           JUNCTION      0.05    54.68     0  03:01     0.00147       0.705       0.376
  YS02001929           JUNCTION     54.63    54.63     0  03:01       0.704       0.704       0.053
  YS02001658           JUNCTION      0.00   455.37     0  02:59           0        1.23       1.304
  YS02001661           JUNCTION      0.00   480.28     0  03:25           0        1.49       0.182
  YS02001664           JUNCTION    147.61   390.24     0  03:24         1.2        1.46       0.114
  YS02001622           JUNCTION      0.00   154.23     0  02:52           0        1.08       3.002
  YS02001633           JUNCTION    121.42   255.87     0  03:00        1.28        2.26       1.437
  YS02001649           JUNCTION      0.00   543.40     0  02:39           0        3.86       0.965
  YS02001757           JUNCTION      0.00   943.49     0  02:40           0        7.54       1.236
  YS02001895           JUNCTION      0.00   212.57     0  02:42           0         1.6       0.258
  YS02001625           JUNCTION      0.00   202.83     0  02:47           0        1.05       3.843
  YS02163301           JUNCTION      0.00   134.77     0  03:00           0           1       2.422
  YS02163601           JUNCTION      0.11   256.80     0  03:00      0.0031        2.21       1.362
  YS02164001           JUNCTION      0.00   257.80     0  03:00           0        2.19       0.900
  YS02001647           JUNCTION      0.00   380.53     0  03:02           0        2.86       0.981
  YSB1154              JUNCTION     20.56    20.56     0  02:09      0.0679      0.0691       2.133
  YSB6556              JUNCTION      0.00    20.52     0  02:11           0        0.07       1.814
  YSB1174              JUNCTION     18.94    18.94     0  02:06      0.0495      0.0502       2.624
  YSB1171              JUNCTION      0.00    37.67     0  02:10           0       0.126       5.300
  YS02006553           JUNCTION      0.00   406.43     0  02:46           0        3.44       0.418
  YS02006561           JUNCTION      0.00   617.17     0  02:39           0        4.88      -0.002
  YS02006556           JUNCTION      0.00   400.56     0  02:45           0        3.45       0.308
  YS02006558           JUNCTION    175.68   583.67     0  02:46        1.48         4.9       0.106
  YS02001783           JUNCTION      0.00   568.30     0  02:46           0        4.88       0.032
  YS02001784           JUNCTION      1.06   560.79     0  02:46      0.0299         4.9       0.057
  YS02001786           JUNCTION      0.06   562.43     0  02:29     0.00159         4.9       0.054
  YS02001788           JUNCTION      0.07   602.28     0  02:28       0.002         4.9       0.033
  YS02001790           JUNCTION      0.15   643.50     0  02:28     0.00437        4.91       0.027
  YS02001791           JUNCTION      0.00   692.74     0  02:28           0         4.9       0.006
  YS02001793           JUNCTION      0.00   732.26     0  02:29           0        4.91      -0.077
  WSC                  OUTFALL       0.00   954.57     0  04:52           0        16.9       0.000
  JK-storage           STORAGE       0.00   818.84     0  02:56           0        5.06     -13.812
  CC-storage           STORAGE       0.00   946.08     0  02:46           0         7.3       0.752
  XR-storage           STORAGE     429.70   429.70     0  02:47         8.3         8.9      -0.369
  
  
  **********************
  Node Surcharge Summary
  **********************
  
  Surcharging occurs when water rises above the top of the highest conduit.
  ---------------------------------------------------------------------
                                               Max. Height   Min. Depth
                                   Hours       Above Crown    Below Rim
  Node                 Type      Surcharged         Meters       Meters
  ---------------------------------------------------------------------
  WS02006109           JUNCTION        3.28          0.187        1.633
  WS02006110           JUNCTION        0.93          0.038        1.812
  WS02006112           JUNCTION        1.25          0.073        1.607
  WS02006230           JUNCTION        0.76          0.062        1.508
  WS02006231           JUNCTION        1.21          0.176        1.354
  WS02006232           JUNCTION        3.13          0.383        1.097
  WS02006234           JUNCTION        1.97          0.369        0.871
  WS02006235           JUNCTION        2.70          0.465        0.825
  WS02006238           JUNCTION        2.83          0.487        0.943
  WS02006240           JUNCTION        2.30          0.437        0.953
  WS02006242           JUNCTION        2.59          0.501        0.319
  WS02006243           JUNCTION        2.19          0.426        0.344
  WS02006245           JUNCTION        2.12          0.409        0.441
  WS02006247           JUNCTION        2.17          0.428        0.332
  WS02006248           JUNCTION        1.95          0.362        0.018
  WS02006249           JUNCTION        2.04          0.390        0.000
  WS02006239           JUNCTION        2.45          0.445        0.845
  WS02006251           JUNCTION        0.75          0.240        0.940
  WS02006252           JUNCTION        2.57          0.416        0.684
  WS02006253           JUNCTION        0.78          0.315        2.165
  WS02006256           JUNCTION        6.27          2.050        0.000
  WS02006228           JUNCTION        3.22          0.230        1.970
  YS02001748           JUNCTION        3.74          0.225        0.965
  YS02001751           JUNCTION        4.93          0.516        0.684
  YS02001754           JUNCTION        5.33          0.745        0.405
  YS02001762           JUNCTION        5.56          1.017        0.133
  YS02001765           JUNCTION        5.54          0.966        0.134
  YS02001767           JUNCTION        5.52          0.917        0.113
  YS02001770           JUNCTION        5.50          0.870        0.050
  YS02001774           JUNCTION        5.55          0.966        0.084
  YS02001779           JUNCTION        5.23          0.680        0.000
  YS02001759           JUNCTION        5.57          1.052        0.158
  YS02001907           JUNCTION        0.02          0.019        0.931
  YS02001619           JUNCTION        4.89          0.483        0.127
  YS02001629           JUNCTION        4.90          0.470        0.000
  YS02001641           JUNCTION        5.55          0.942        0.158
  YS02001644           JUNCTION        5.55          0.920        0.000
  YS02001652           JUNCTION        5.38          1.058        0.072
  YS02001655           JUNCTION        4.97          1.094        0.106
  YS02001658           JUNCTION        3.82          1.081        0.219
  YS02001661           JUNCTION        0.03          0.976        0.414
  YS02001622           JUNCTION        4.94          0.501        0.119
  YS02001633           JUNCTION        5.53          0.930        0.130
  YS02001649           JUNCTION        5.56          1.050        0.000
  YS02001757           JUNCTION        5.62          1.159        0.051
  YS02001625           JUNCTION        5.48          0.780        0.000
  YS02163301           JUNCTION        5.51          0.888        0.142
  YS02163601           JUNCTION        5.55          0.998        0.082
  YS02164001           JUNCTION        5.53          0.925        0.175
  YS02001647           JUNCTION        5.42          0.798        0.102
  YS02006553           JUNCTION        0.25          0.029        1.161
  YS02001783           JUNCTION        0.01          0.141        1.459
  YS02001784           JUNCTION        0.02          0.188        1.302
  YS02001786           JUNCTION        0.01          0.155        1.275
  YS02001788           JUNCTION        0.01          0.176        1.304
  YS02001790           JUNCTION        0.59          1.157        0.000
  YS02001791           JUNCTION        0.68          1.014        0.906
  YS02001793           JUNCTION        0.86          1.215        1.385
  
  
  *********************
  Node Flooding Summary
  *********************
  
  Flooding refers to all water that overflows a node, whether it ponds or not.
  --------------------------------------------------------------------------
                                                             Total   Maximum
                                 Maximum   Time of Max       Flood    Ponded
                        Hours       Rate    Occurrence      Volume     Depth
  Node                 Flooded       LPS   days hr:min    10^6 ltr    Meters
  --------------------------------------------------------------------------
  WS02006249              0.68     94.32      0  05:40       0.153     0.000
  WS02006256              2.21    978.40      0  00:00       3.127     0.000
  YS02001779              0.62     14.17      0  03:48       0.006     0.000
  YS02001644              1.76    378.10      0  05:14       1.022     0.000
  YS02001649              0.01     26.64      0  03:27       0.000     0.000
  YS02001625              0.04     13.07      0  03:20       0.000     0.000
  YS02001790              0.01     81.59      0  04:10       0.000     0.000
  JK-storage              0.32    524.50      0  03:00       0.275     0.000
  
  
  **********************
  Storage Volume Summary
  **********************
  
  --------------------------------------------------------------------------------------------------
                         Average     Avg  Evap Exfil       Maximum     Max    Time of Max    Maximum
                          Volume    Pcnt  Pcnt  Pcnt        Volume    Pcnt     Occurrence    Outflow
  Storage Unit           1000 m3    Full  Loss  Loss       1000 m3    Full    days hr:min        LPS
  --------------------------------------------------------------------------------------------------
  JK-storage               0.090      31     0     0         0.291     100       0  02:58     983.00
  CC-storage               2.986      19     0     0         3.830      24       0  05:10     400.00
  XR-storage               0.347      37     0     0         0.814      88       0  07:06     380.00
  
  
  ***********************
  Outfall Loading Summary
  ***********************
  
  ---------------------------------------------------------------------------------------------------------------------------------
                         Flow       Avg       Max       Total         Total         Total         Total         Total         Total
                         Freq      Flow      Flow      Volume           COD            SS            TN            TP         NH4-N
  Outfall Node           Pcnt       LPS       LPS    10^6 ltr            kg            kg            kg            kg            kg
  ---------------------------------------------------------------------------------------------------------------------------------
  WSC                   99.98    690.60    954.57      16.889      2054.932      3385.286       154.720        18.680        94.960
  ---------------------------------------------------------------------------------------------------------------------------------
  System                99.98    690.60    954.57      16.889      2054.932      3385.286       154.720        18.680        94.960
  
  
  ********************
  Link Flow Summary
  ********************
  
  -----------------------------------------------------------------------------
                                 Maximum  Time of Max   Maximum    Max/    Max/
                                  |Flow|   Occurrence   |Veloc|    Full    Full
  Link                 Type          LPS  days hr:min     m/sec    Flow   Depth
  -----------------------------------------------------------------------------
  WS02003066WSF200     CONDUIT    548.67     0  04:45      2.77    0.09    0.23
  WS02006287WS02006284 CONDUIT    320.87     0  02:12      1.88    0.15    0.27
  WS02006284WS02006280 CONDUIT    320.99     0  02:12      2.12    0.13    0.25
  WS02006280WS02006229 CONDUIT    321.00     0  02:12      3.41    0.07    0.18
  WS02006229WS02006228 CONDUIT    566.18     0  03:33      1.13    1.88    1.00
  WS02006256WS02006235 CONDUIT    288.60     0  00:00      4.23    3.05    1.00
  WS02006253WS02006251 CONDUIT    130.36     0  03:31      0.58    0.39    1.00
  WS02006252WS02006251 CONDUIT    402.80     0  07:12      3.21    1.48    1.00
  WS02006251WS02006249 CONDUIT    419.40     0  05:40      1.09    1.21    1.00
  WS02006249WS02006248 CONDUIT    415.02     0  03:50      1.13    2.27    1.00
  WS02006248WS02006247 CONDUIT    414.49     0  03:50      1.10    0.90    1.00
  WS02006247WS02006245 CONDUIT    414.52     0  03:50      1.08    3.29    1.00
  WS02006245WS02006243 CONDUIT    414.13     0  03:50      1.08    1.22    1.00
  WS02006243WS02006242 CONDUIT    413.99     0  03:50      1.08    0.88    1.00
  WS02006242WS02006240 CONDUIT    414.19     0  03:50      1.08    1.64    1.00
  WS02006240WS02006239 CONDUIT    414.32     0  03:50      1.08    1.30    1.00
  WS02006239WS02006238 CONDUIT    414.06     0  03:50      1.08    1.32    1.00
  WS02006238WS02006235 CONDUIT    423.64     0  06:21      1.46    0.95    1.00
  WS02006235WS02006234 CONDUIT    530.30     0  07:12      1.38    5.59    1.00
  WS02006234WS02006232 CONDUIT    528.95     0  07:12      1.39    1.07    1.00
  WS02006232WS02006231 CONDUIT    528.47     0  07:12      1.37    1.11    1.00
  WS02006231WS02006230 CONDUIT    527.58     0  07:12      1.37    8.00    1.00
  WS02006230WS02006229 CONDUIT    538.88     0  07:12      1.40   11.99    1.00
  WS02006228WS02006109 CONDUIT    565.84     0  03:33      1.13    2.47    1.00
  WS02006116WS02004401 CONDUIT    551.73     0  03:37      0.79    0.76    0.85
  WS02006115WS02006116 CONDUIT    556.96     0  03:35      0.90    0.71    0.77
  WS02006113WS02006111 CONDUIT    590.78     0  03:34      2.50    0.71    0.48
  WS02006112WS02006115 CONDUIT    573.58     0  03:35      0.80    0.34    0.88
  WS02006111WS02006112 CONDUIT    572.99     0  03:35      1.58    0.27    0.68
  WS02006110WS02006113 CONDUIT    567.65     0  03:33      1.33    0.52    0.79
  WS02006109WS02006110 CONDUIT    567.13     0  03:33      1.13    1.09    1.00
  WS02004411WS02004412 CONDUIT    548.68     0  04:45      0.93    0.78    0.70
  WS02004401WS02004402 CONDUIT    550.52     0  03:37      0.76    0.66    0.87
  WS02004413WS02003067 CONDUIT    548.66     0  04:45      1.12    0.23    0.60
  WS02004412WS02004413 CONDUIT    548.67     0  04:45      0.83    0.37    0.78
  WS02004410WS02004411 CONDUIT    548.71     0  04:44      0.95    0.75    0.69
  WS02004409WS02004410 CONDUIT    548.73     0  04:44      0.99    0.71    0.68
  WS02004407WS02004409 CONDUIT    548.78     0  04:43      1.50    0.19    0.49
  WS02004406WS02004407 CONDUIT    548.79     0  04:43      1.05    0.25    0.63
  WS02004405WS02004406 CONDUIT    549.39     0  03:38      0.71    1.08    0.96
  WS02004404WS02004405 CONDUIT    549.16     0  03:38      0.71    5.38    0.97
  WS02004403WS02004404 CONDUIT    549.12     0  03:38      0.72    0.40    0.94
  WS02004402WS02004403 CONDUIT    549.99     0  03:37      0.74    0.79    0.89
  WS02004139WS02001211 CONDUIT    382.31     0  05:10      0.90    0.48    0.60
  WS02004138WS02004139 CONDUIT    396.19     0  00:00      3.65    0.08    0.44
  WS02003067WS02003066 CONDUIT    548.67     0  04:45      1.22    0.18    0.42
  WS02001213WS02003059 CONDUIT    397.96     0  05:09      0.88    0.66    0.78
  WS02001212WS02001213 CONDUIT    394.25     0  05:10      1.32    0.61    0.48
  WS02001211WS02001212 CONDUIT    391.99     0  05:10      0.78    0.30    0.65
  WS02003072WS02003073 CONDUIT    952.77     0  04:51      1.73    2.06    0.49
  WS02003069WS02003072 CONDUIT    952.78     0  04:51      1.63    0.46    0.51
  WS02003060WS02003069 CONDUIT    952.47     0  04:50      1.87    0.37    0.46
  WS02003059WS02003060 CONDUIT    403.19     0  05:09      0.95    0.26    0.67
  HS02004901HS02004770 CONDUIT     16.14     0  02:09      0.06    0.06    0.38
  HS02004876HS02004881 CONDUIT     56.98     0  02:10      0.82    0.61    0.10
  HS02004870HS02004876 CONDUIT     45.59     0  02:12      0.56    0.03    0.12
  HS02004842HS02004848 CONDUIT      7.85     0  02:22      0.04    0.00    0.29
  HS02004837HS02004842 CONDUIT      8.17     0  02:23      0.42    0.00    0.30
  HS02004830HS02004837 CONDUIT     33.42     0  02:12      0.51    0.03    0.09
  HS02004824HS02004830 CONDUIT     33.56     0  02:12      0.55    0.04    0.09
  HS02004817HS02004824 CONDUIT     57.99     0  02:14      0.19    0.03    0.44
  HS02004770HS02004777 CONDUIT     82.64     0  02:08      0.30    0.15    0.39
  HS02004799HS02004480 CONDUIT    204.51     0  02:10      0.74    0.26    0.39
  HS02004792HS02004799 CONDUIT    186.72     0  02:10      0.85    0.11    0.32
  HS02004788HS02004792 CONDUIT    108.45     0  02:10      0.98    0.07    0.16
  HS02004785HS02004788 CONDUIT     82.26     0  02:10      0.64    0.62    0.19
  HS02004777HS02004785 CONDUIT     82.20     0  02:10      0.36    0.10    0.32
  HS02004480HS02004478 CONDUIT    241.87     0  02:11      1.15    1.02    0.30
  HS02004479HS02004480 CONDUIT     38.14     0  02:12      0.17    0.04    0.38
  HS02004862HS02004870 CONDUIT     33.78     0  02:13      0.57    0.04    0.08
  HS02004848HS02004852 CONDUIT     14.54     0  02:12      0.39    0.02    0.05
  HS02004856HS02004862 CONDUIT     23.28     0  02:12      0.42    0.02    0.08
  HS02004852HS02004856 CONDUIT     14.48     0  02:13      0.19    0.02    0.11
  HS02004802HS02004478 CONDUIT     81.43     0  02:15      0.38    0.07    0.32
  HS02004478WS02006287 CONDUIT    320.85     0  02:12      1.58    0.09    0.23
  HS02004817HS02004807 CONDUIT     59.46     0  02:16      0.15    0.04    0.58
  HS02004807HS02004802 CONDUIT     80.78     0  02:14      0.32    0.15    0.37
  YS02001759YS02001757 CONDUIT    369.96     0  02:44      0.47    0.26    1.00
  YS02001762YS02001759 CONDUIT    210.05     0  02:44      0.27    0.24    1.00
  YS02001765YS02001762 CONDUIT    204.35     0  02:44      0.26    0.19    1.00
  YS02001770YS02001767 CONDUIT    193.46     0  02:44      0.30    0.77    1.00
  YS02001774YS02001770 CONDUIT     53.66     0  02:09      0.14    0.03    1.00
  YS02001779YS02001774 CONDUIT     38.20     0  02:38      0.07    0.02    1.00
  YS02001649YS02001757 CONDUIT    541.76     0  02:39      0.69    0.33    1.00
  YS02001767YS02001765 CONDUIT    198.23     0  02:44      0.27    0.25    1.00
  YS02006561YS02001783 CONDUIT    568.30     0  02:46      2.07    0.29    0.68
  YS02001783YS02001784 CONDUIT    559.73     0  02:46      1.50    0.77    1.00
  YS02001784YS02001785 CONDUIT    562.37     0  02:29      1.60    1.31    1.00
  YS02001788YS02001790 CONDUIT    643.34     0  02:28      2.15    0.47    1.00
  YS02001790YS02001791 CONDUIT    692.74     0  02:28      2.54    0.75    1.00
  YS02001791YS02001793 CONDUIT    732.26     0  02:29      5.22    0.31    1.00
  YS02001910YS02001907 CONDUIT    191.27     0  02:45      0.49    0.11    0.90
  YS02001786YS02001788 CONDUIT    602.21     0  02:28      2.06    1.16    1.00
  YS02001915YS02001910 CONDUIT    186.15     0  02:55      0.45    0.09    0.69
  YS02001918YS02001915 CONDUIT     63.45     0  02:54      0.44    0.03    0.41
  YS02001923YS02001920 CONDUIT     54.68     0  03:01      0.55    0.02    0.20
  YS02001926YS02001923 CONDUIT     54.64     0  03:01      0.61    0.08    0.17
  YS02001929YS02001926 CONDUIT     54.63     0  03:01      0.66    0.03    0.16
  YS02001920YS02001918 CONDUIT     60.27     0  02:55      0.55    0.06    0.27
  YS02001629YS02163301 CONDUIT    134.77     0  03:00      0.17    0.17    1.00
  YS02001619YS02001622 CONDUIT    154.23     0  02:52      0.71    0.23    1.00
  YS02001622YS02001625 CONDUIT    202.83     0  02:47      0.30    0.11    1.00
  YS02001625YS02001629 CONDUIT    201.64     0  02:47      0.29    0.10    1.00
  YS02163301YS02001633 CONDUIT    136.21     0  03:00      0.17    0.13    1.00
  YS02163601YS02164001 CONDUIT    257.80     0  03:00      0.33    0.23    1.00
  YS02164001YS02001641 CONDUIT    260.94     0  03:02      0.33    0.36    1.00
  YS02001641YS02001644 CONDUIT    263.08     0  03:02      0.33    0.85    1.00
  YS02001647YS02001649 CONDUIT    380.72     0  03:00      0.48    0.20    1.00
  YS02006553YS02006556 CONDUIT    400.56     0  02:45      0.52    0.34    0.97
  YS02006556YS02006558 CONDUIT    412.61     0  02:46      0.53    0.33    0.99
  YSB6556YSB1171       CONDUIT     20.81     0  02:13      0.08    0.02    0.65
  YS02001907YS02006553 CONDUIT    406.43     0  02:46      0.45    0.48    1.00
  YS02006558YS02006561 CONDUIT    617.17     0  02:39      3.02    1.36    0.69
  YS02001633YS02163601 CONDUIT    256.69     0  03:00      0.33    0.27    1.00
  YS02001644YS02001647 CONDUIT    380.53     0  03:02      0.48    0.22    1.00
  YS02001745YS02001748 CONDUIT    265.51     0  03:01      1.57    0.10    0.93
  YS02001748YS02001751 CONDUIT    405.74     0  02:39      1.19    0.20    1.00
  YS02001751YS02001754 CONDUIT    205.84     0  02:41      0.92    0.10    1.00
  YS02001754YS02001757 CONDUIT    208.02     0  02:41      0.33    0.08    1.00
  YS02001882YS02001884 CONDUIT     10.30     0  02:44      0.08    0.01    0.62
  YS02001884YS02001887 CONDUIT     15.36     0  02:03      0.05    0.02    0.72
  YS02001890YS02001895 CONDUIT    212.57     0  02:42      0.37    0.10    0.69
  YS02001895YS02001898 CONDUIT    217.03     0  02:42      0.50    0.38    0.55
  YS02001898YS02001901 CONDUIT    219.05     0  02:42      0.43    0.14    0.63
  YS02001901YS02001904 CONDUIT    226.18     0  02:42      0.40    0.35    0.68
  YS02001904YS02001907 CONDUIT    232.36     0  02:45      0.33    0.08    0.84
  YS02001887YS02001890 CONDUIT    213.64     0  02:33      0.33    0.37    0.77
  YS02001652YS02001649 CONDUIT    204.60     0  02:41      0.38    0.10    1.00
  YS02001655YS02001652 CONDUIT    204.13     0  02:42      0.95    0.10    1.00
  YS02001658YS02001655 CONDUIT    350.07     0  02:36      1.38    0.15    1.00
  YS02001661YS02001658 CONDUIT    455.37     0  02:59      1.65    0.18    1.00
  YS02001664YS02001661 CONDUIT    480.28     0  03:25      1.42    0.15    0.70
  YSB1154YSB6556       CONDUIT     20.52     0  02:11      0.19    0.04    0.54
  YSB1174YSB1171       CONDUIT     17.96     0  02:08      0.07    0.03    0.66
  YSB1171HS02004479    CONDUIT     37.81     0  02:12      0.54    0.03    0.51
  HS02004881HS02006253 CONDUIT     63.67     0  02:10      2.01    0.01    0.51
  YS02001793JiankangQianchi CONDUIT    818.84     0  02:56     15.85    0.07    1.00
  YS02001757CaochengTiaoxuchi CONDUIT    946.08     0  02:46      1.91    0.42    1.00
  WSF200WS02003060     CONDUIT    548.68     0  04:46      1.95    0.12    0.34
  1                    CONDUIT    954.57     0  04:52      3.29    0.33    0.40
  CC-Pump-1            PUMP       200.00     0  03:30              1.00
  CC-Pump-2            PUMP       200.00     0  03:50              1.00
  JK-Pump-1            PUMP       300.00     0  00:00              1.00
  JK-Pump-2            PUMP       683.00     0  00:00              1.00
  XR-Pump-1            PUMP        95.00     0  00:00              1.00
  XR-Pump-2            PUMP        95.00     0  00:00              1.00
  XR-Pump-3            PUMP        95.00     0  00:00              1.00
  XR-Pump-4            PUMP        95.00     0  00:00              1.00
  
  
  ***************************
  Flow Classification Summary
  ***************************
  
  -------------------------------------------------------------------------------------
                      Adjusted    ---------- Fraction of Time in Flow Class ---------- 
                       /Actual         Up    Down  Sub   Sup   Up    Down  Norm  Inlet 
  Conduit               Length    Dry  Dry   Dry   Crit  Crit  Crit  Crit  Ltd   Ctrl  
  -------------------------------------------------------------------------------------
  WS02003066WSF200        1.00   0.01  0.07  0.00  0.00  0.92  0.00  0.00  0.55  0.00
  WS02006287WS02006284    1.00   0.03  0.02  0.00  0.74  0.21  0.00  0.00  0.76  0.00
  WS02006284WS02006280    1.00   0.04  0.00  0.00  0.00  0.00  0.00  0.96  0.00  0.00
  WS02006280WS02006229    1.00   0.04  0.00  0.00  0.00  0.00  0.00  0.96  0.00  0.00
  WS02006229WS02006228    1.00   0.00  0.00  0.00  1.00  0.00  0.00  0.00  0.00  0.00
  WS02006256WS02006235    1.00   0.00  0.00  0.00  1.00  0.00  0.00  0.00  0.00  0.00
  WS02006253WS02006251    1.00   0.01  0.02  0.00  0.96  0.00  0.00  0.00  0.00  0.00
  WS02006252WS02006251    1.00   0.19  0.00  0.00  0.07  0.00  0.74  0.00  0.00  0.00
  WS02006251WS02006249    1.00   0.00  0.00  0.00  1.00  0.00  0.00  0.00  0.31  0.00
  WS02006249WS02006248    1.00   0.00  0.01  0.00  0.88  0.00  0.11  0.00  0.00  0.00
  WS02006248WS02006247    1.00   0.01  0.00  0.00  0.98  0.00  0.00  0.01  0.20  0.00
  WS02006247WS02006245    1.00   0.01  0.00  0.00  0.96  0.00  0.00  0.03  0.00  0.00
  WS02006245WS02006243    1.00   0.00  0.00  0.00  0.92  0.00  0.00  0.07  0.01  0.00
  WS02006243WS02006242    1.00   0.00  0.00  0.00  1.00  0.00  0.00  0.00  0.32  0.00
  WS02006242WS02006240    1.00   0.00  0.00  0.00  1.00  0.00  0.00  0.00  0.00  0.00
  WS02006240WS02006239    1.00   0.00  0.00  0.00  0.93  0.00  0.00  0.07  0.01  0.00
  WS02006239WS02006238    1.00   0.00  0.00  0.00  1.00  0.00  0.00  0.00  0.20  0.00
  WS02006238WS02006235    1.00   0.00  0.00  0.00  1.00  0.00  0.00  0.00  0.00  0.00
  WS02006235WS02006234    1.00   0.00  0.00  0.00  0.94  0.00  0.06  0.00  0.00  0.00
  WS02006234WS02006232    1.00   0.00  0.00  0.00  1.00  0.00  0.00  0.00  0.16  0.00
  WS02006232WS02006231    1.00   0.00  0.00  0.00  1.00  0.00  0.00  0.00  0.00  0.00
  WS02006231WS02006230    1.00   0.00  0.00  0.00  0.74  0.00  0.26  0.00  0.00  0.00
  WS02006230WS02006229    1.00   0.00  0.00  0.00  1.00  0.00  0.00  0.00  0.01  0.00
  WS02006228WS02006109    1.00   0.00  0.00  0.00  1.00  0.00  0.00  0.00  0.00  0.00
  WS02006116WS02004401    1.00   0.01  0.00  0.00  0.99  0.00  0.00  0.00  0.01  0.00
  WS02006115WS02006116    1.00   0.01  0.00  0.00  0.97  0.00  0.00  0.02  0.01  0.00
  WS02006113WS02006111    1.00   0.01  0.00  0.00  0.00  0.99  0.00  0.00  0.17  0.00
  WS02006112WS02006115    1.00   0.01  0.00  0.00  0.99  0.00  0.00  0.00  0.00  0.00
  WS02006111WS02006112    1.00   0.01  0.00  0.00  0.99  0.00  0.00  0.00  0.98  0.00
  WS02006110WS02006113    1.00   0.00  0.00  0.00  0.99  0.00  0.00  0.00  0.00  0.00
  WS02006109WS02006110    1.00   0.00  0.00  0.00  0.99  0.00  0.00  0.00  0.00  0.00
  WS02004411WS02004412    1.00   0.06  0.00  0.00  0.94  0.00  0.00  0.00  0.00  0.00
  WS02004401WS02004402    1.00   0.01  0.00  0.00  0.99  0.00  0.00  0.00  0.01  0.00
  WS02004413WS02003067    1.00   0.06  0.02  0.00  0.00  0.00  0.92  0.00  0.00  0.00
  WS02004412WS02004413    1.00   0.06  0.00  0.00  0.94  0.00  0.00  0.00  0.01  0.00
  WS02004410WS02004411    1.00   0.06  0.00  0.00  0.94  0.00  0.00  0.00  0.00  0.00
  WS02004409WS02004410    1.00   0.06  0.00  0.00  0.94  0.00  0.00  0.00  0.00  0.00
  WS02004407WS02004409    1.00   0.06  0.00  0.00  0.94  0.00  0.00  0.00  0.78  0.00
  WS02004406WS02004407    1.00   0.00  0.06  0.00  0.94  0.00  0.00  0.00  0.00  0.00
  WS02004405WS02004406    1.00   0.00  0.00  0.00  1.00  0.00  0.00  0.00  0.02  0.00
  WS02004404WS02004405    1.00   0.00  0.00  0.00  1.00  0.00  0.00  0.00  0.00  0.00
  WS02004403WS02004404    1.00   0.00  0.01  0.00  0.99  0.00  0.00  0.00  0.02  0.00
  WS02004402WS02004403    1.00   0.01  0.00  0.00  0.99  0.00  0.00  0.00  0.00  0.00
  WS02004139WS02001211    1.00   0.00  0.00  0.00  1.00  0.00  0.00  0.00  0.00  0.00
  WS02004138WS02004139    1.00   0.00  0.01  0.00  0.99  0.00  0.00  0.00  1.00  0.00
  WS02003067WS02003066    1.00   0.08  0.00  0.00  0.92  0.00  0.00  0.00  0.00  0.00
  WS02001213WS02003059    1.00   0.00  0.00  0.00  1.00  0.00  0.00  0.00  0.00  0.00
  WS02001212WS02001213    1.00   0.00  0.00  0.00  0.90  0.00  0.09  0.00  0.00  0.00
  WS02001211WS02001212    1.00   0.00  0.00  0.00  1.00  0.00  0.00  0.00  0.00  0.00
  WS02003072WS02003073    1.00   0.00  0.00  0.00  0.00  0.00  0.00  1.00  0.00  0.00
  WS02003069WS02003072    1.00   0.00  0.00  0.00  1.00  0.00  0.00  0.00  0.17  0.00
  WS02003060WS02003069    1.00   0.00  0.00  0.00  0.98  0.02  0.00  0.00  0.12  0.00
  WS02003059WS02003060    1.00   0.00  0.00  0.00  1.00  0.00  0.00  0.00  0.00  0.00
  HS02004901HS02004770    1.00   0.04  0.00  0.00  0.96  0.00  0.00  0.00  0.01  0.00
  HS02004876HS02004881    1.00   0.01  0.00  0.00  0.98  0.01  0.00  0.00  0.00  0.00
  HS02004870HS02004876    1.00   0.00  0.00  0.00  1.00  0.00  0.00  0.00  0.95  0.00
  HS02004842HS02004848    1.00   0.00  0.04  0.00  0.96  0.00  0.00  0.00  0.64  0.00
  HS02004837HS02004842    1.00   0.00  0.00  0.00  1.00  0.00  0.00  0.00  0.11  0.00
  HS02004830HS02004837    1.00   0.00  0.00  0.00  1.00  0.00  0.00  0.00  0.99  0.00
  HS02004824HS02004830    1.00   0.00  0.00  0.00  1.00  0.00  0.00  0.00  0.00  0.00
  HS02004817HS02004824    1.00   0.00  0.00  0.00  1.00  0.00  0.00  0.00  1.00  0.00
  HS02004770HS02004777    1.00   0.00  0.04  0.00  0.96  0.00  0.00  0.00  0.05  0.00
  HS02004799HS02004480    1.00   0.00  0.01  0.00  0.95  0.00  0.04  0.00  0.00  0.00
  HS02004792HS02004799    1.00   0.00  0.00  0.00  1.00  0.00  0.00  0.00  0.98  0.00
  HS02004788HS02004792    1.00   0.00  0.00  0.00  1.00  0.00  0.00  0.00  0.98  0.00
  HS02004785HS02004788    1.00   0.00  0.00  0.00  1.00  0.00  0.00  0.00  0.00  0.00
  HS02004777HS02004785    1.00   0.00  0.00  0.00  1.00  0.00  0.00  0.00  0.17  0.00
  HS02004480HS02004478    1.00   0.04  0.00  0.00  0.81  0.00  0.00  0.15  0.00  0.00
  HS02004479HS02004480    1.00   0.01  0.00  0.00  0.99  0.00  0.00  0.00  0.15  0.00
  HS02004862HS02004870    1.00   0.00  0.00  0.00  1.00  0.00  0.00  0.00  0.05  0.00
  HS02004848HS02004852    1.00   0.04  0.00  0.00  0.96  0.00  0.00  0.00  0.72  0.00
  HS02004856HS02004862    1.00   0.00  0.06  0.00  0.94  0.00  0.00  0.00  0.77  0.00
  HS02004852HS02004856    1.00   0.04  0.01  0.00  0.96  0.00  0.00  0.00  0.84  0.00
  HS02004802HS02004478    1.00   0.04  0.01  0.00  0.96  0.00  0.00  0.00  0.01  0.00
  HS02004478WS02006287    1.00   0.05  0.00  0.00  0.88  0.07  0.00  0.00  0.73  0.00
  HS02004817HS02004807    1.00   0.00  0.04  0.00  0.96  0.00  0.00  0.00  0.00  0.00
  HS02004807HS02004802    1.00   0.04  0.00  0.00  0.96  0.00  0.00  0.00  0.01  0.00
  YS02001759YS02001757    1.00   0.00  0.00  0.00  1.00  0.00  0.00  0.00  0.18  0.00
  YS02001762YS02001759    1.00   0.00  0.00  0.00  1.00  0.00  0.00  0.00  0.04  0.00
  YS02001765YS02001762    1.00   0.00  0.00  0.00  1.00  0.00  0.00  0.00  0.19  0.00
  YS02001770YS02001767    1.00   0.00  0.00  0.00  1.00  0.00  0.00  0.00  0.00  0.00
  YS02001774YS02001770    1.00   0.00  0.04  0.00  0.96  0.00  0.00  0.00  0.05  0.00
  YS02001779YS02001774    1.00   0.00  0.00  0.00  1.00  0.00  0.00  0.00  0.24  0.00
  YS02001649YS02001757    1.00   0.00  0.00  0.00  1.00  0.00  0.00  0.00  0.18  0.00
  YS02001767YS02001765    1.00   0.00  0.00  0.00  1.00  0.00  0.00  0.00  0.01  0.00
  YS02006561YS02001783    1.00   0.07  0.00  0.00  0.08  0.86  0.00  0.00  0.63  0.00
  YS02001783YS02001784    1.00   0.00  0.07  0.00  0.93  0.00  0.00  0.00  0.01  0.00
  YS02001784YS02001785    1.00   0.00  0.00  0.00  1.00  0.00  0.00  0.00  0.23  0.00
  YS02001788YS02001790    1.00   0.00  0.00  0.00  0.18  0.82  0.00  0.00  0.66  0.00
  YS02001790YS02001791    1.00   0.00  0.00  0.00  0.13  0.87  0.00  0.00  0.57  0.00
  YS02001791YS02001793    1.00   0.00  0.00  0.00  0.20  0.80  0.00  0.00  0.07  0.00
  YS02001910YS02001907    1.00   0.00  0.00  0.00  0.99  0.00  0.00  0.01  0.13  0.00
  YS02001786YS02001788    1.00   0.00  0.00  0.00  0.16  0.84  0.00  0.00  0.00  0.00
  YS02001915YS02001910    1.00   0.00  0.00  0.00  1.00  0.00  0.00  0.00  0.21  0.00
  YS02001918YS02001915    1.00   0.00  0.00  0.00  0.99  0.00  0.00  0.00  0.67  0.00
  YS02001923YS02001920    1.00   0.00  0.00  0.00  1.00  0.00  0.00  0.00  1.00  0.00
  YS02001926YS02001923    1.00   0.00  0.02  0.00  0.00  0.00  0.98  0.00  0.00  0.00
  YS02001929YS02001926    1.00   0.00  0.04  0.00  0.96  0.00  0.00  0.00  0.87  0.00
  YS02001920YS02001918    1.00   0.00  0.00  0.00  1.00  0.00  0.00  0.00  0.00  0.00
  YS02001629YS02163301    1.00   0.05  0.00  0.00  0.94  0.00  0.00  0.00  0.00  0.00
  YS02001619YS02001622    1.00   0.04  0.00  0.00  0.96  0.00  0.00  0.00  0.00  0.00
  YS02001622YS02001625    1.00   0.04  0.00  0.00  0.96  0.00  0.00  0.00  0.10  0.00
  YS02001625YS02001629    1.00   0.04  0.03  0.00  0.92  0.00  0.02  0.00  0.00  0.00
  YS02163301YS02001633    1.00   0.00  0.05  0.00  0.95  0.00  0.00  0.00  0.00  0.00
  YS02163601YS02164001    1.00   0.00  0.02  0.00  0.98  0.00  0.00  0.00  0.00  0.00
  YS02164001YS02001641    1.00   0.00  0.02  0.00  0.98  0.00  0.00  0.00  0.07  0.00
  YS02001641YS02001644    1.00   0.00  0.00  0.00  1.00  0.00  0.00  0.00  0.00  0.00
  YS02001647YS02001649    1.00   0.00  0.06  0.00  0.94  0.00  0.00  0.00  0.01  0.00
  YS02006553YS02006556    1.00   0.01  0.00  0.00  0.99  0.00  0.00  0.00  0.03  0.00
  YS02006556YS02006558    1.00   0.00  0.00  0.00  1.00  0.00  0.00  0.00  0.00  0.00
  YSB6556YSB1171          1.00   0.01  0.02  0.00  0.97  0.00  0.00  0.00  0.00  0.00
  YS02001907YS02006553    1.00   0.00  0.01  0.00  0.99  0.00  0.00  0.00  0.00  0.00
  YS02006558YS02006561    1.00   0.07  0.00  0.00  0.00  0.93  0.00  0.00  0.62  0.00
  YS02001633YS02163601    1.00   0.00  0.00  0.00  1.00  0.00  0.00  0.00  0.18  0.00
  YS02001644YS02001647    1.00   0.00  0.06  0.00  0.94  0.00  0.00  0.00  0.00  0.00
  YS02001745YS02001748    1.00   0.00  0.00  0.00  0.90  0.00  0.00  0.10  0.04  0.00
  YS02001748YS02001751    1.00   0.00  0.00  0.00  0.97  0.03  0.00  0.00  0.17  0.00
  YS02001751YS02001754    1.00   0.00  0.00  0.00  0.93  0.00  0.00  0.07  0.02  0.00
  YS02001754YS02001757    1.00   0.00  0.00  0.00  1.00  0.00  0.00  0.00  0.24  0.00
  YS02001882YS02001884    1.00   0.05  0.00  0.00  0.95  0.00  0.00  0.00  0.00  0.00
  YS02001884YS02001887    1.00   0.02  0.01  0.00  0.97  0.00  0.00  0.00  0.00  0.00
  YS02001890YS02001895    1.00   0.00  0.05  0.00  0.94  0.00  0.00  0.00  0.00  0.00
  YS02001895YS02001898    1.00   0.06  0.00  0.00  0.93  0.00  0.01  0.00  0.00  0.00
  YS02001898YS02001901    1.00   0.06  0.00  0.00  0.94  0.00  0.00  0.00  0.02  0.00
  YS02001901YS02001904    1.00   0.06  0.00  0.00  0.94  0.00  0.00  0.00  0.00  0.00
  YS02001904YS02001907    1.00   0.00  0.05  0.00  0.95  0.00  0.00  0.00  0.00  0.00
  YS02001887YS02001890    1.00   0.00  0.00  0.00  0.99  0.00  0.01  0.00  0.00  0.00
  YS02001652YS02001649    1.00   0.00  0.00  0.00  1.00  0.00  0.00  0.00  0.22  0.00
  YS02001655YS02001652    1.00   0.00  0.00  0.00  0.93  0.00  0.00  0.07  0.02  0.00
  YS02001658YS02001655    1.00   0.00  0.05  0.00  0.92  0.04  0.00  0.00  0.08  0.00
  YS02001661YS02001658    1.00   0.05  0.00  0.00  0.90  0.05  0.00  0.00  0.04  0.00
  YS02001664YS02001661    1.00   0.04  0.00  0.00  0.92  0.05  0.00  0.00  0.27  0.00
  YSB1154YSB6556          1.00   0.03  0.00  0.00  0.97  0.00  0.00  0.00  0.02  0.00
  YSB1174YSB1171          1.00   0.01  0.01  0.00  0.97  0.00  0.00  0.00  0.00  0.00
  YSB1171HS02004479       1.00   0.01  0.00  0.00  0.98  0.00  0.00  0.00  0.13  0.00
  HS02004881HS02006253    1.00   0.02  0.00  0.00  0.77  0.00  0.00  0.22  0.53  0.00
  YS02001793JiankangQianchi    1.00   0.00  0.00  0.00  0.56  0.44  0.00  0.00  0.51  0.00
  YS02001757CaochengTiaoxuchi    1.00   0.00  0.08  0.00  0.92  0.00  0.00  0.00  0.00  0.00
  WSF200WS02003060        1.00   0.00  0.01  0.00  0.83  0.16  0.00  0.00  0.39  0.00
  1                       1.00   0.00  0.00  0.00  0.00  1.00  0.00  0.00  0.52  0.00
  
  
  *************************
  Conduit Surcharge Summary
  *************************
  
  ----------------------------------------------------------------------------
                                                           Hours        Hours 
                         --------- Hours Full --------   Above Full   Capacity
  Conduit                Both Ends  Upstream  Dnstream   Normal Flow   Limited
  ----------------------------------------------------------------------------
  WS02006229WS02006228        3.22      3.35      3.22      4.69         3.22
  WS02006256WS02006235        5.30      5.30      6.27      3.16         0.01
  WS02006253WS02006251        1.96      1.96      2.04      0.01         0.01
  WS02006252WS02006251        1.77      1.77      2.57      2.34         0.01
  WS02006251WS02006249        1.97      1.98      2.04      1.57         1.36
  WS02006249WS02006248        1.95      1.95      2.04      4.02         0.01
  WS02006248WS02006247        2.01      2.01      2.17      0.01         0.01
  WS02006247WS02006245        2.12      2.20      2.12      4.12         2.11
  WS02006245WS02006243        2.15      2.16      2.19      1.05         0.98
  WS02006243WS02006242        2.24      2.24      2.59      0.01         0.01
  WS02006242WS02006240        2.30      2.30      2.80      2.63         0.01
  WS02006240WS02006239        2.33      2.36      2.45      1.81         1.36
  WS02006239WS02006238        2.73      2.79      2.83      1.89         1.54
  WS02006238WS02006235        2.76      2.76      3.01      0.01         0.01
  WS02006235WS02006234        1.97      1.97      2.70      5.15         0.01
  WS02006234WS02006232        2.46      2.46      3.13      0.88         0.89
  WS02006232WS02006231        1.21      1.21      3.13      1.04         0.01
  WS02006231WS02006230        0.76      0.76      1.26      5.27         0.01
  WS02006230WS02006229        4.02      4.33      4.02      5.60         4.02
  WS02006228WS02006109        3.28      3.65      3.28      5.10         3.28
  WS02006112WS02006115        0.01      0.01      1.25      0.01         0.01
  WS02006111WS02006112        0.01      0.01      4.84      0.01         0.01
  WS02006110WS02006113        0.01      0.01      3.50      0.01         0.01
  WS02006109WS02006110        0.92      0.92      3.65      0.94         0.01
  WS02004405WS02004406        0.01      0.01      0.01      1.04         0.01
  WS02004404WS02004405        0.01      0.01      0.01      5.64         0.01
  WS02003072WS02003073        0.01      0.01      0.01      5.01         0.01
  HS02004480HS02004478        0.01      0.01      0.01      0.08         0.01
  YS02001759YS02001757        5.57      5.57      5.62      0.01         0.01
  YS02001762YS02001759        5.56      5.56      5.57      0.01         0.01
  YS02001765YS02001762        5.54      5.54      5.56      0.01         0.01
  YS02001770YS02001767        5.52      5.52      5.52      0.01         0.69
  YS02001774YS02001770        5.50      5.50      5.55      0.01         0.01
  YS02001779YS02001774        5.23      5.23      5.55      0.01         0.01
  YS02001649YS02001757        5.56      5.56      5.62      0.01         0.01
  YS02001767YS02001765        5.52      5.52      5.54      0.01         0.01
  YS02006561YS02001783        0.01      0.01      0.01      0.01         0.01
  YS02001783YS02001784        0.01      0.01      0.02      0.01         0.01
  YS02001784YS02001785        0.01      0.02      0.01      1.03         0.01
  YS02001788YS02001790        0.01      0.01      0.59      0.01         0.01
  YS02001790YS02001791        0.59      0.59      0.68      0.01         0.01
  YS02001791YS02001793        0.68      0.68      0.93      0.01         0.01
  YS02001910YS02001907        0.01      0.01      0.02      0.01         0.01
  YS02001786YS02001788        0.01      0.01      0.01      0.57         0.01
  YS02001629YS02163301        5.51      5.51      5.51      0.01         0.01
  YS02001619YS02001622        4.89      4.89      4.94      0.01         0.01
  YS02001622YS02001625        4.93      4.93      5.48      0.01         0.01
  YS02001625YS02001629        4.90      4.90      5.48      0.01         0.01
  YS02163301YS02001633        5.51      5.51      5.54      0.01         0.01
  YS02163601YS02164001        5.53      5.53      5.55      0.01         0.01
  YS02164001YS02001641        5.53      5.53      5.55      0.01         0.01
  YS02001641YS02001644        5.55      5.55      5.55      0.01         0.90
  YS02001647YS02001649        5.43      5.43      5.56      0.01         0.01
  YS02006553YS02006556        0.01      0.01      0.25      0.01         0.01
  YS02006556YS02006558        0.01      0.01      0.47      0.01         0.01
  YS02001907YS02006553        1.07      1.07      1.24      0.01         0.01
  YS02006558YS02006561        0.01      0.01      0.01      0.87         0.01
  YS02001633YS02163601        5.53      5.53      5.55      0.01         0.01
  YS02001644YS02001647        5.42      5.42      5.55      0.01         0.01
  YS02001745YS02001748        0.01      0.01      3.74      0.01         0.01
  YS02001748YS02001751        4.08      4.08      4.93      0.01         0.01
  YS02001751YS02001754        4.93      4.93      5.33      0.01         0.01
  YS02001754YS02001757        5.41      5.41      5.62      0.01         0.01
  YS02001904YS02001907        0.01      0.01      0.28      0.01         0.01
  YS02001652YS02001649        5.46      5.46      5.56      0.01         0.01
  YS02001655YS02001652        4.97      4.97      5.38      0.01         0.01
  YS02001658YS02001655        3.82      3.82      4.97      0.01         0.01
  YS02001661YS02001658        0.03      0.03      3.82      0.01         0.01
  YS02001664YS02001661        0.01      0.01      0.24      0.01         0.01
  HS02004881HS02006253        0.01      0.01      0.78      0.01         0.01
  YS02001793JiankangQianchi        0.86      0.86      3.28      0.01         0.01
  YS02001757CaochengTiaoxuchi        4.39      4.39      5.62      0.01         0.01
  
  
  ***************
  Pumping Summary
  ***************
  
  ---------------------------------------------------------------------------------------------------------
                                                  Min       Avg       Max     Total     Power    % Time Off
                        Percent   Number of      Flow      Flow      Flow    Volume     Usage    Pump Curve
  Pump                 Utilized   Start-Ups       LPS       LPS       LPS  10^6 ltr     Kw-hr    Low   High
  ---------------------------------------------------------------------------------------------------------
  CC-Pump-1               55.31           2      0.00    189.23    200.00     2.940      3.84    0.0    0.0
  CC-Pump-2               40.42           4      0.00    106.32    200.00     1.560      2.42    0.0    0.0
  JK-Pump-1               51.07           6      0.00    158.96    300.00     2.347     39.50    0.0    0.0
  JK-Pump-2               40.43           7      0.00    268.23    683.00     3.246     56.09    0.0   94.9
  XR-Pump-1               87.23           4      0.00     90.52     95.00     2.166     38.43    0.0    0.0
  XR-Pump-2               87.23           4      0.00     90.52     95.00     2.166     38.43    0.0    0.0
  XR-Pump-3               85.10           4      0.00     89.31     95.00     2.052     35.69    0.0    0.0
  XR-Pump-4               85.10           4      0.00     89.31     95.00     2.052     35.69    0.0    0.0
  
  
  ***************************
  Link Pollutant Load Summary
  ***************************
  
  ------------------------------------------------------------------------------------------
                                 COD            SS            TN            TP         NH4-N
  Link                            kg            kg            kg            kg            kg
  ------------------------------------------------------------------------------------------
  WS02003066WSF200           561.381       982.094        17.172         1.595         9.319
  WS02006287WS02006284       151.280       269.806         7.100         0.784         4.149
  WS02006284WS02006280       151.702       270.489         7.140         0.788         4.174
  WS02006280WS02006229       151.686       270.457         7.139         0.788         4.174
  WS02006229WS02006228       567.371       992.090        16.846         1.538         9.078
  WS02006256WS02006235       106.146       183.689         2.753         0.233         1.446
  WS02006253WS02006251        28.607        52.855         0.758         0.064         0.394
  WS02006252WS02006251       307.474       530.599         6.805         0.499         3.368
  WS02006251WS02006249       328.417       570.267         7.403         0.551         3.685
  WS02006249WS02006248       317.032       550.564         7.145         0.532         3.556
  WS02006248WS02006247       316.896       550.366         7.144         0.532         3.556
  WS02006247WS02006245       316.477       549.661         7.133         0.531         3.551
  WS02006245WS02006243       316.009       548.944         7.117         0.530         3.542
  WS02006243WS02006242       315.923       548.882         7.118         0.530         3.543
  WS02006242WS02006240       315.837       548.882         7.113         0.530         3.540
  WS02006240WS02006239       316.521       550.290         7.123         0.530         3.544
  WS02006239WS02006238       317.743       552.456         7.161         0.534         3.565
  WS02006238WS02006235       318.001       552.725         7.174         0.535         3.573
  WS02006235WS02006234       418.864       727.011         9.793         0.757         4.949
  WS02006234WS02006232       418.485       726.369         9.789         0.757         4.948
  WS02006232WS02006231       417.706       725.042         9.764         0.755         4.935
  WS02006231WS02006230       417.049       723.886         9.753         0.754         4.929
  WS02006230WS02006229       417.347       724.559         9.769         0.756         4.939
  WS02006228WS02006109       566.645       990.894        16.826         1.536         9.067
  WS02006116WS02004401       573.248      1002.125        17.505         1.624         9.494
  WS02006115WS02006116       574.345      1003.954        17.538         1.627         9.512
  WS02006113WS02006111       572.707      1000.448        17.548         1.629         9.524
  WS02006112WS02006115       575.620      1006.107        17.590         1.632         9.542
  WS02006111WS02006112       572.269       999.704        17.539         1.628         9.520
  WS02006110WS02006113       573.331      1001.499        17.574         1.632         9.539
  WS02006109WS02006110       574.525      1003.507        17.626         1.637         9.569
  WS02004411WS02004412       564.869       987.981        17.309         1.609         9.396
  WS02004401WS02004402       571.980       999.989        17.456         1.619         9.467
  WS02004413WS02003067       562.002       983.127        17.188         1.596         9.327
  WS02004412WS02004413       563.656       985.930        17.270         1.605         9.375
  WS02004410WS02004411       565.831       989.600        17.337         1.612         9.411
  WS02004409WS02004410       566.840       991.302        17.371         1.615         9.430
  WS02004407WS02004409       567.598       992.569        17.390         1.616         9.440
  WS02004406WS02004407       567.719       992.748        17.386         1.616         9.437
  WS02004405WS02004406       569.443       995.624        17.469         1.625         9.485
  WS02004404WS02004405       570.239       996.976        17.462         1.622         9.477
  WS02004403WS02004404       569.824       996.368        17.380         1.611         9.424
  WS02004402WS02004403       570.901       998.184        17.421         1.616         9.448
  WS02004139WS02001211      1364.519      2197.388       124.699        15.471        77.590
  WS02004138WS02004139      1370.870      2207.635       125.264        15.540        77.941
  WS02003067WS02003066       561.571       982.414        17.180         1.596         9.323
  WS02001213WS02003059      1393.860      2244.155       127.608        15.836        79.413
  WS02001212WS02001213      1404.057      2260.557       128.544        15.952        79.995
  WS02001211WS02001212      1406.627      2264.686       128.782        15.982        80.144
  WS02003072WS02003073      2051.215      3379.427       154.244        18.618        94.657
  WS02003069WS02003072      2056.495      3387.989       154.687        18.672        94.931
  WS02003060WS02003069      2059.961      3393.641       154.946        18.704        95.090
  WS02003059WS02003060      1389.733      2237.537       127.214        15.787        79.167
  HS02004901HS02004770         4.618         8.625         0.088         0.006         0.041
  HS02004876HS02004881        17.582        33.296         0.451         0.036         0.231
  HS02004870HS02004876        13.382        25.213         0.379         0.032         0.198
  HS02004842HS02004848         2.435         4.413         0.053         0.003         0.024
  HS02004837HS02004842         7.047        11.747         0.520         0.062         0.318
  HS02004830HS02004837        53.334        88.443         4.322         0.529         2.672
  HS02004824HS02004830        54.084        89.646         4.393         0.538         2.717
  HS02004817HS02004824        63.854       108.121         4.621         0.554         2.831
  HS02004770HS02004777        17.648        33.243         0.372         0.025         0.170
  HS02004799HS02004480        66.743       120.542         2.413         0.244         1.340
  HS02004792HS02004799        61.219       109.539         2.358         0.245         1.322
  HS02004788HS02004792        37.854        67.447         1.767         0.192         1.020
  HS02004785HS02004788        19.147        35.655         0.525         0.044         0.266
  HS02004777HS02004785        18.597        34.763         0.475         0.038         0.235
  HS02004480HS02004478        82.507       150.979         2.637         0.258         1.438
  HS02004479HS02004480        20.005        37.187         0.627         0.064         0.350
  HS02004862HS02004870         9.958        18.377         0.311         0.028         0.166
  HS02004848HS02004852         3.284         6.033         0.070         0.005         0.032
  HS02004856HS02004862         6.119        11.637         0.124         0.008         0.058
  HS02004852HS02004856         3.280         6.025         0.070         0.005         0.032
  HS02004802HS02004478        69.089       119.349         4.491         0.529         2.728
  HS02004478WS02006287       151.463       270.111         7.115         0.785         4.159
  HS02004817HS02004807        62.494       105.945         4.492         0.538         2.750
  HS02004807HS02004802        69.716       120.347         4.552         0.537         2.766
  YS02001759YS02001757       187.715       325.902         4.042         0.282         1.999
  YS02001762YS02001759        98.410       172.102         2.312         0.166         1.166
  YS02001765YS02001762        97.724       170.819         2.321         0.168         1.173
  YS02001770YS02001767        95.243       166.788         2.020         0.129         0.982
  YS02001774YS02001770         5.415         9.380         0.137         0.010         0.071
  YS02001779YS02001774         3.850         6.465         0.191         0.021         0.112
  YS02001649YS02001757       228.428       384.387         4.908         0.360         2.376
  YS02001767YS02001765        97.633       170.605         2.332         0.170         1.181
  YS02006561YS02001783       382.847       659.783         9.487         0.774         4.916
  YS02001783YS02001784       382.784       659.696         9.483         0.773         4.914
  YS02001784YS02001785       390.148       671.498        10.197         0.863         5.360
  YS02001788YS02001790       390.814       672.584        10.271         0.872         5.407
  YS02001790YS02001791       391.873       674.295        10.372         0.885         5.470
  YS02001791YS02001793       391.869       674.300        10.369         0.884         5.468
  YS02001910YS02001907       128.959       217.930         4.332         0.394         2.379
  YS02001786YS02001788       390.386       671.893        10.226         0.866         5.378
  YS02001915YS02001910       128.873       217.752         4.284         0.387         2.347
  YS02001918YS02001915        64.264       103.876         2.867         0.308         1.669
  YS02001923YS02001920        44.291        71.946         0.921         0.064         0.452
  YS02001926YS02001923        43.935        71.375         0.883         0.060         0.428
  YS02001929YS02001926        43.680        70.956         0.851         0.056         0.408
  YS02001920YS02001918        64.214       103.827         2.840         0.304         1.652
  YS02001629YS02163301        50.075        84.384         1.093         0.069         0.506
  YS02001619YS02001622        52.795        88.572         1.157         0.072         0.535
  YS02001622YS02001625        51.792        87.044         1.132         0.071         0.523
  YS02001625YS02001629        50.723        85.465         1.106         0.070         0.512
  YS02163301YS02001633        50.855        85.750         1.106         0.070         0.514
  YS02163601YS02164001       139.155       232.954         2.933         0.207         1.410
  YS02164001YS02001641       138.865       232.483         2.915         0.205         1.399
  YS02001641YS02001644       139.788       234.020         2.925         0.205         1.402
  YS02001647YS02001649       183.060       306.033         3.728         0.263         1.785
  YS02006553YS02006556       276.845       475.428         7.196         0.611         3.792
  YS02006556YS02006558       276.754       475.255         7.164         0.606         3.770
  YSB6556YSB1171              10.784        20.214         0.269         0.025         0.144
  YS02001907YS02006553       276.826       475.412         7.195         0.611         3.791
  YS02006558YS02006561       382.793       659.675         9.484         0.773         4.914
  YS02001633YS02163601       139.796       233.919         2.915         0.203         1.395
  YS02001644YS02001647       187.391       313.092         3.804         0.268         1.821
  YS02001745YS02001748        74.533       128.302         1.646         0.103         0.801
  YS02001748YS02001751        78.806       135.277         2.060         0.155         1.061
  YS02001751YS02001754        77.164       132.280         2.118         0.166         1.106
  YS02001754YS02001757        78.063       133.689         2.287         0.189         1.216
  YS02001882YS02001884         1.303         2.165         0.031         0.003         0.016
  YS02001884YS02001887         3.867         6.603         0.087         0.007         0.045
  YS02001890YS02001895       149.022       259.155         2.888         0.219         1.425
  YS02001895YS02001898       148.877       258.949         2.882         0.218         1.421
  YS02001898YS02001901       148.745       258.756         2.879         0.218         1.420
  YS02001901YS02001904       148.763       258.820         2.897         0.221         1.432
  YS02001904YS02001907       149.422       259.914         2.982         0.232         1.486
  YS02001887YS02001890       149.877       260.475         2.950         0.226         1.463
  YS02001652YS02001649        54.095        92.583         1.357         0.109         0.671
  YS02001655YS02001652        54.730        93.616         1.374         0.111         0.679
  YS02001658YS02001655        53.305        91.404         1.164         0.083         0.544
  YS02001661YS02001658        58.158        99.935         1.214         0.083         0.556
  YS02001664YS02001661        68.130       115.836         1.440         0.098         0.659
  YSB1154YSB6556              10.294        19.432         0.209         0.017         0.106
  YSB1174YSB1171               7.367        13.987         0.182         0.017         0.097
  YSB1171HS02004479           19.919        37.058         0.619         0.063         0.345
  HS02004881HS02006253        19.817        37.705         0.483         0.038         0.245
  YS02001793JiankangQianchi       393.112       676.372        10.424         0.890         5.500
  YS02001757CaochengTiaoxuchi       477.711       818.312        10.655         0.778         5.272
  WSF200WS02003060           561.285       981.930        17.181         1.597         9.325
  1                         2054.932      3385.286       154.720        18.680        94.960
  CC-Pump-1                  200.455       345.831         4.437         0.325         2.195
  CC-Pump-2                  107.030       184.785         2.369         0.174         1.172
  JK-Pump-1                  109.399       189.722         2.761         0.230         1.440
  JK-Pump-2                  178.899       309.169         4.692         0.399         2.471
  XR-Pump-1                  354.931       571.519        32.456         4.027        20.196
  XR-Pump-2                  354.931       571.519        32.456         4.027        20.196
  XR-Pump-3                  332.621       535.706        30.370         3.767        18.895
  XR-Pump-4                  332.621       535.706        30.370         3.767        18.895
  

  Analysis begun on:  Sun Jul 11 12:44:20 2021
  Analysis ended on:  Sun Jul 11 12:44:22 2021
  Total elapsed time: 00:00:02