
  EPA STORM WATER MANAGEMENT MODEL - VERSION 5.1 (Build 5.3.0.dev0)
  --------------------------------------------------------------

  WARNING 04: minimum elevation drop used for Conduit WS02004404WS02004405
  WARNING 03: negative offset ignored for Link YS02001904YS02001907
  
  *********************************************************
  NOTE: The summary statistics displayed in this report are
  based on results found at every computational time step,  
  not just on results from each reporting time step.
  *********************************************************
  
  ****************
  Analysis Options
  ****************
  Flow Units ............... LPS
  Process Models:
    Rainfall/Runoff ........ YES
    RDII ................... NO
    Snowmelt ............... NO
    Groundwater ............ NO
    Flow Routing ........... YES
    Ponding Allowed ........ NO
    Water Quality .......... YES
  Infiltration Method ...... HORTON
  Flow Routing Method ...... DYNWAVE
  Surcharge Method ......... EXTRAN
  Starting Date ............ 08/28/2015 08:00:00
  Ending Date .............. 08/28/2015 15:50:00
  Antecedent Dry Days ...... 8.0
  Report Time Step ......... 00:01:00
  Wet Time Step ............ 00:01:00
  Dry Time Step ............ 00:01:00
  Routing Time Step ........ 5.00 sec
  Variable Time Step ....... YES
  Maximum Trials ........... 8
  Number of Threads ........ 4
  Head Tolerance ........... 0.001500 m
  
  
  **************************        Volume         Depth
  Runoff Quantity Continuity     hectare-m            mm
  **************************     ---------       -------
  Total Precipitation ......         2.737         5.993
  Evaporation Loss .........         0.000         0.000
  Infiltration Loss ........         0.582         1.275
  Surface Runoff ...........         1.604         3.513
  Final Storage ............         0.551         1.207
  Continuity Error (%) .....        -0.022
  
  
  **************************           COD            SS            TN            TP         NH4-N
  Runoff Quality Continuity             kg            kg            kg            kg            kg
  **************************    ----------    ----------    ----------    ----------    ----------
  Initial Buildup ..........     41378.656     70582.865      1804.177       168.684      1032.807
  Surface Buildup ..........        15.412        20.796         2.976         0.274         1.759
  Wet Deposition ...........         0.000         0.000         0.000         0.000         0.000
  Sweeping Removal .........         0.000         0.000         0.000         0.000         0.000
  Infiltration Loss ........        30.040        53.217         0.590         0.040         0.277
  BMP Removal ..............         0.000         0.000         0.000         0.000         0.000
  Surface Runoff ...........       987.868      1696.868        19.907         1.296         9.387
  Remaining Buildup ........     40375.838     68853.027      1786.648       167.622      1024.898
  Continuity Error (%) .....         0.001         0.001         0.000         0.000         0.000
  
  
  **************************        Volume        Volume
  Flow Routing Continuity        hectare-m      10^6 ltr
  **************************     ---------     ---------
  Dry Weather Inflow .......         0.616         6.165
  Wet Weather Inflow .......         1.604        16.036
  Groundwater Inflow .......         0.000         0.000
  RDII Inflow ..............         0.000         0.000
  External Inflow ..........         0.102         1.024
  External Outflow .........         1.701        17.006
  Flooding Loss ............         0.370         3.697
  Evaporation Loss .........         0.000         0.000
  Exfiltration Loss ........         0.000         0.000
  Initial Stored Volume ....         0.076         0.761
  Final Stored Volume ......         0.454         4.536
  Continuity Error (%) .....        -5.225
  
  
  **************************           COD            SS            TN            TP         NH4-N
  Quality Routing Continuity            kg            kg            kg            kg            kg
  **************************    ----------    ----------    ----------    ----------    ----------
  Dry Weather Inflow .......      1541.201      2465.922       147.955        18.494        92.472
  Wet Weather Inflow .......       987.542      1696.353        19.900         1.295         9.384
  Groundwater Inflow .......         0.000         0.000         0.000         0.000         0.000
  RDII Inflow ..............         0.000         0.000         0.000         0.000         0.000
  External Inflow ..........       183.418       293.469        17.608         2.201        11.005
  External Outflow .........      2125.651      3477.813       166.327        20.196       102.387
  Flooding Loss ............       180.701       308.227         4.526         0.372         2.344
  Exfiltration Loss ........         0.000         0.000         0.000         0.000         0.000
  Mass Reacted .............         0.000         0.000         0.000         0.000         0.000
  Initial Stored Mass ......         0.000         0.000         0.000         0.000         0.000
  Final Stored Mass ........       264.083       432.407         9.460         0.913         5.246
  Continuity Error (%) .....         5.226         5.326         2.777         2.318         2.556
  
  
  *************************
  Highest Continuity Errors
  *************************
  Node YS02001774 (33.50%)
  Node JK-storage (-24.65%)
  Node HS02004842 (24.23%)
  Node YS02001884 (18.45%)
  Node YSB1171 (5.46%)
  
  
  ***************************
  Time-Step Critical Elements
  ***************************
  Link WS02006252WS02006251 (67.96%)
  Link WS02006280WS02006229 (9.68%)
  Link YS02001793JiankangQianchi (6.47%)
  Link WS02006238WS02006235 (3.84%)
  Link WS02004404WS02004405 (3.62%)
  
  
  ********************************
  Highest Flow Instability Indexes
  ********************************
  Link WS02006113WS02006111 (48)
  Link YS02001619YS02001622 (30)
  Link WS02006111WS02006112 (30)
  Link YS02001779YS02001774 (29)
  Link YS02001774YS02001770 (27)
  
  
  *************************
  Routing Time Step Summary
  *************************
  Minimum Time Step           :     0.35 sec
  Average Time Step           :     1.24 sec
  Maximum Time Step           :     5.00 sec
  Percent in Steady State     :    -0.00
  Average Iterations per Step :     4.19
  Percent Not Converging      :    19.67
  
  
  ***************************
  Subcatchment Runoff Summary
  ***************************
  
  ------------------------------------------------------------------------------------------------------------------------------
                            Total      Total      Total      Total     Imperv       Perv      Total       Total     Peak  Runoff
                           Precip      Runon       Evap      Infil     Runoff     Runoff     Runoff      Runoff   Runoff   Coeff
  Subcatchment                 mm         mm         mm         mm         mm         mm         mm    10^6 ltr      LPS
  ------------------------------------------------------------------------------------------------------------------------------
  sub0                       5.99       0.00       0.00       0.41       5.53       0.01       5.54        0.00     1.95   0.924
  sub1                       5.99       0.00       0.00       0.65       5.25       0.01       5.25        0.03    11.02   0.876
  sub2                       5.99       0.00       0.00       2.21       3.70       0.00       3.70        0.03     9.83   0.617
  sub3                       5.99       0.00       0.00       2.21       3.66       0.00       3.66        0.08    20.34   0.611
  sub4                       5.99       0.00       0.00       0.66       5.11       0.00       5.11        0.11    22.82   0.852
  sub5                       5.99       0.00       0.00       0.41       5.48       0.01       5.49        0.06    19.60   0.916
  sub7                       5.99       0.00       0.00       0.53       5.39       0.01       5.40        0.02     6.74   0.901
  sub8                       5.99       0.00       0.00       0.53       5.38       0.01       5.39        0.03    12.02   0.900
  sub9                       5.99       0.00       0.00       0.53       5.38       0.01       5.39        0.03     8.93   0.899
  sub10                      5.99       0.00       0.00       0.47       5.43       0.01       5.44        0.06    19.49   0.907
  sub11                      5.99       0.00       0.00       0.47       5.45       0.01       5.45        0.06    22.53   0.910
  sub12                      5.99       0.00       0.00       0.77       5.17       0.01       5.18        0.05    18.42   0.864
  sub14                      5.99       0.00       0.00       0.53       5.38       0.01       5.39        0.05    17.49   0.899
  sub15                      5.99       0.00       0.00       1.79       4.14       0.01       4.14        0.07    23.80   0.691
  sub16                      5.99       0.00       0.00       1.97       3.98       0.01       3.99        0.04    16.38   0.665
  sub17                      5.99       0.00       0.00       1.91       4.03       0.01       4.04        0.03    13.31   0.675
  sub22                      5.99       0.00       0.00       2.57       3.38       0.01       3.38        0.21    76.94   0.564
  sub23                      5.99       0.00       0.00       2.21       3.73       0.01       3.74        0.18    65.32   0.624
  sub60                      5.99       0.00       0.00       0.72       3.86       0.00       3.86        1.17   111.44   0.644
  sub61                      5.99       0.00       0.00       1.02       4.06       0.00       4.06        1.25   141.56   0.677
  sub62                      5.99       0.00       0.00       0.48       4.37       0.00       4.37        1.34   144.14   0.730
  sub63                      5.99       0.00       0.00       1.74       3.59       0.00       3.59        1.09   132.77   0.600
  sub64                      5.99       0.00       0.00       0.90       3.69       0.00       3.69        1.12   105.76   0.616
  sub65                      5.99       0.00       0.00       0.78       3.75       0.00       3.75        1.15   107.23   0.625
  sub66                      5.99       0.00       0.00       1.74       3.21       0.00       3.21        0.98    97.30   0.535
  sub67                      5.99       0.00       0.00       0.48       4.74       0.00       4.74        1.46   187.17   0.791
  sub68                      5.99       0.00       0.00       0.84       4.30       0.00       4.30        1.32   157.01   0.718
  sub69                      5.99       0.00       0.00       0.90       4.58       0.00       4.58        1.07   157.96   0.764
  sub70                      5.99       4.67       0.00       3.61       5.80       0.01       5.81        1.33   126.68   0.545
  sub71                      5.99       0.00       0.00       0.48       4.21       0.00       4.21        0.99   100.15   0.702
  sub72                      5.99       0.00       0.00       0.42       3.09       0.00       3.09        0.63    47.66   0.515
  1                          5.99       5.66       0.00       1.32       6.06       1.03       7.09        1.67   123.16   0.609
  2                          5.99       0.00       0.00       2.91       1.37       0.36       1.73        0.69    97.47   0.289
  
  
  ****************************
  Subcatchment Washoff Summary
  ****************************
  
  ------------------------------------------------------------------------------------------
                                 COD            SS            TN            TP         NH4-N
  Subcatchment                    kg            kg            kg            kg            kg
  ------------------------------------------------------------------------------------------
  sub0                         0.961         1.818         0.016         0.001         0.008
  sub1                         3.835         7.314         0.071         0.005         0.034
  sub2                         2.180         3.995         0.048         0.003         0.022
  sub3                         5.250         9.479         0.114         0.007         0.052
  sub4                         8.297        15.660         0.169         0.010         0.081
  sub5                         8.856        16.687         0.155         0.012         0.075
  sub7                         2.044         3.987         0.038         0.003         0.018
  sub8                         3.065         6.088         0.062         0.004         0.029
  sub9                         2.600         5.095         0.050         0.003         0.024
  sub10                        7.350        14.040         0.133         0.009         0.064
  sub11                        7.320        14.197         0.136         0.009         0.065
  sub12                        6.175        11.804         0.110         0.008         0.053
  sub14                        5.522        10.720         0.104         0.007         0.050
  sub15                        6.474        11.966         0.126         0.009         0.059
  sub16                        4.150         7.695         0.079         0.006         0.037
  sub17                        3.802         6.985         0.070         0.005         0.033
  sub22                       19.140        34.654         0.369         0.027         0.171
  sub23                       11.726        22.036         0.258         0.016         0.117
  sub60                       63.331       107.839         1.341         0.077         0.640
  sub61                       80.432       136.752         1.554         0.101         0.745
  sub62                       84.700       146.600         1.738         0.104         0.831
  sub63                       60.304       101.281         1.291         0.087         0.589
  sub64                       75.625       123.914         1.444         0.101         0.684
  sub65                       77.522       127.572         1.493         0.102         0.709
  sub66                       45.520        75.440         1.010         0.063         0.466
  sub67                      127.778       220.038         2.317         0.164         1.115
  sub68                       90.467       155.780         1.806         0.116         0.857
  sub69                       85.063       149.157         1.640         0.111         0.779
  sub70                      128.618       224.598         2.691         0.179         1.243
  sub71                       55.978        97.607         1.229         0.067         0.585
  sub72                       37.088        59.563         0.728         0.047         0.349
  1                           69.911       123.060         1.512         0.101         0.688
  2                           10.467        17.201         0.337         0.020         0.141
  ------------------------------------------------------------------------------------------
  System                    1201.549      2070.623        24.239         1.585        11.409
  
  
  ******************
  Node Depth Summary
  ******************
  
  ---------------------------------------------------------------------------------
                                 Average  Maximum  Maximum  Time of Max    Reported
                                   Depth    Depth      HGL   Occurrence   Max Depth
  Node                 Type       Meters   Meters   Meters  days hr:min      Meters
  ---------------------------------------------------------------------------------
  WS02001211           JUNCTION     0.71     0.79     5.63     0  05:00        0.79
  WS02001212           JUNCTION     0.42     0.51     5.57     0  05:00        0.51
  WS02001213           JUNCTION     0.67     0.76     5.52     0  05:00        0.76
  WS02003069           JUNCTION     0.47     0.59     5.17     0  05:01        0.59
  WS02003072           JUNCTION     0.54     0.64     5.02     0  05:02        0.64
  WS02003073           JUNCTION     0.33     0.40     4.46     0  05:02        0.40
  WS02003060           JUNCTION     0.42     0.52     5.45     0  05:01        0.52
  WS02003066           JUNCTION     0.24     0.30     5.85     0  05:07        0.30
  WS02003059           JUNCTION     0.72     0.81     5.50     0  05:01        0.81
  WS02003067           JUNCTION     0.58     0.70     6.02     0  05:06        0.70
  WS02004401           JUNCTION     0.69     0.86     6.86     0  03:55        0.86
  WS02004402           JUNCTION     0.72     0.89     6.85     0  03:55        0.89
  WS02004403           JUNCTION     0.74     0.90     6.83     0  03:55        0.90
  WS02004404           JUNCTION     0.81     0.97     6.82     0  03:56        0.97
  WS02004406           JUNCTION     0.82     0.96     6.79     0  03:56        0.96
  WS02004409           JUNCTION     0.51     0.67     6.44     0  05:02        0.67
  WS02004410           JUNCTION     0.52     0.69     6.41     0  04:58        0.69
  WS02004411           JUNCTION     0.54     0.70     6.38     0  04:58        0.70
  WS02004412           JUNCTION     0.55     0.70     6.34     0  04:58        0.70
  WS02004413           JUNCTION     0.70     0.86     6.33     0  04:59        0.86
  WS02004405           JUNCTION     0.81     0.97     6.82     0  03:56        0.97
  WS02006109           JUNCTION     0.77     1.00     7.62     0  03:50        0.99
  WS02006110           JUNCTION     0.76     0.94     7.53     0  03:50        0.94
  WS02006111           JUNCTION     0.22     0.29     7.00     0  03:51        0.29
  WS02006112           JUNCTION     0.86     1.12     7.00     0  03:55        1.09
  WS02006113           JUNCTION     0.35     0.46     7.36     0  03:50        0.46
  WS02006115           JUNCTION     0.58     0.77     6.91     0  03:55        0.76
  WS02006116           JUNCTION     0.66     0.84     6.88     0  03:55        0.84
  WS02006230           JUNCTION     0.75     1.14     7.89     0  03:49        1.13
  WS02006231           JUNCTION     0.51     0.88     8.01     0  03:49        0.87
  WS02006232           JUNCTION     0.65     1.08     8.12     0  03:49        1.08
  WS02006234           JUNCTION     0.58     1.21     8.36     0  06:26        1.08
  WS02006235           JUNCTION     0.62     1.18     8.34     0  03:49        1.16
  WS02006238           JUNCTION     0.65     1.21     8.35     0  03:50        1.21
  WS02006240           JUNCTION     0.56     1.15     8.44     0  03:50        1.15
  WS02006242           JUNCTION     0.63     1.24     8.51     0  03:50        1.23
  WS02006243           JUNCTION     0.51     1.21     8.63     0  06:26        1.13
  WS02006245           JUNCTION     0.50     1.12     8.61     0  03:49        1.12
  WS02006247           JUNCTION     0.51     1.14     8.64     0  03:49        1.13
  WS02006248           JUNCTION     0.46     1.08     8.67     0  04:43        1.08
  WS02006249           JUNCTION     0.48     1.09     8.69     0  03:49        1.09
  WS02006239           JUNCTION     0.61     1.19     8.40     0  03:50        1.19
  WS02006251           JUNCTION     0.47     1.41     9.08     0  03:49        1.14
  WS02006252           JUNCTION     0.35     0.98     9.22     0  03:49        0.68
  WS02006253           JUNCTION     0.50     1.44     9.09     0  03:49        1.18
  WS02006256           JUNCTION     1.39     2.35     9.28     0  00:00        2.35
  WS02004138           JUNCTION     0.16     0.20     7.45     0  00:00        0.19
  WS02004139           JUNCTION     0.65     0.74     5.65     0  05:00        0.74
  WS02004407           JUNCTION     0.23     0.30     6.61     0  03:56        0.30
  WS02006228           JUNCTION     0.77     1.05     7.70     0  03:50        1.04
  WS02006229           JUNCTION     0.74     1.05     7.74     0  03:50        1.05
  WS02006280           JUNCTION     0.05     0.17     8.44     0  02:12        0.17
  WS02006284           JUNCTION     0.34     0.52     8.92     0  02:12        0.52
  WS02006287           JUNCTION     0.07     0.26     9.21     0  02:12        0.26
  WSF200               JUNCTION     0.22     0.31     5.54     0  05:08        0.31
  HS02004901           JUNCTION     0.10     0.26    10.09     0  02:09        0.26
  HS02004881           JUNCTION     0.00     0.03     9.06     0  02:11        0.03
  HS02004876           JUNCTION     0.03     0.11     9.14     0  02:06        0.11
  HS02004870           JUNCTION     0.01     0.05     9.34     0  02:12        0.05
  HS02004862           JUNCTION     0.01     0.06     9.45     0  02:12        0.06
  HS02004856           JUNCTION     0.07     0.11     9.54     0  02:12        0.11
  HS02004852           JUNCTION     0.01     0.04     9.55     0  02:13        0.04
  HS02004848           JUNCTION     0.01     0.04     9.64     0  02:11        0.04
  HS02004842           JUNCTION     0.33     0.37     9.64     0  02:11        0.37
  HS02004837           JUNCTION     0.02     0.06     9.64     0  02:11        0.06
  HS02004830           JUNCTION     0.04     0.07     9.54     0  02:12        0.07
  HS02004824           JUNCTION     0.02     0.05     9.45     0  02:14        0.05
  HS02004817           JUNCTION     0.42     0.56     9.41     0  02:12        0.56
  HS02004807           JUNCTION     0.11     0.24     9.41     0  02:12        0.24
  HS02004802           JUNCTION     0.15     0.27     9.40     0  02:12        0.27
  HS02004799           JUNCTION     0.09     0.31     9.52     0  02:10        0.31
  HS02004792           JUNCTION     0.02     0.12     9.65     0  02:10        0.12
  HS02004788           JUNCTION     0.02     0.09     9.99     0  02:10        0.09
  HS02004785           JUNCTION     0.03     0.16    10.06     0  02:10        0.16
  HS02004777           JUNCTION     0.13     0.28    10.08     0  02:10        0.28
  HS02004770           JUNCTION     0.10     0.26    10.09     0  02:10        0.26
  HS02004480           JUNCTION     0.06     0.24     9.48     0  02:10        0.24
  HS02004479           JUNCTION     0.09     0.28     9.48     0  02:11        0.28
  HS02004478           JUNCTION     0.05     0.16     9.39     0  02:11        0.16
  YS02001745           JUNCTION     0.60     0.85     8.36     0  04:32        0.84
  YS02001748           JUNCTION     0.99     1.29     8.37     0  04:34        1.28
  YS02001751           JUNCTION     1.17     1.49     8.37     0  04:30        1.49
  YS02001754           JUNCTION     1.42     1.77     8.38     0  04:05        1.76
  YS02001762           JUNCTION     1.62     2.00     8.40     0  03:54        1.97
  YS02001765           JUNCTION     1.57     1.96     8.41     0  03:54        1.92
  YS02001767           JUNCTION     1.54     1.92     8.41     0  03:54        1.89
  YS02001770           JUNCTION     1.53     1.94     8.44     0  02:55        1.88
  YS02001774           JUNCTION     1.60     2.00     8.43     0  02:55        1.95
  YS02001779           JUNCTION     1.35     1.68     8.37     0  02:55        1.68
  YS02001882           JUNCTION     0.30     0.57     7.29     0  02:35        0.57
  YS02001884           JUNCTION     0.39     0.67     7.28     0  02:36        0.67
  YS02001759           JUNCTION     1.65     2.03     8.39     0  03:54        2.01
  YS02001887           JUNCTION     0.47     0.75     7.28     0  02:36        0.75
  YS02001890           JUNCTION     0.50     0.78     7.28     0  02:36        0.78
  YS02001898           JUNCTION     0.27     0.53     7.27     0  02:37        0.53
  YS02001901           JUNCTION     0.39     0.66     7.27     0  02:38        0.66
  YS02001904           JUNCTION     0.37     0.63     7.26     0  02:39        0.63
  YS02001907           JUNCTION     0.70     0.97     7.26     0  02:39        0.97
  YS02001910           JUNCTION     0.49     0.76     7.26     0  02:37        0.76
  YS02001915           JUNCTION     0.29     0.55     7.26     0  02:38        0.55
  YS02001918           JUNCTION     0.09     0.20     7.26     0  02:38        0.20
  YS02001619           JUNCTION     1.13     1.49     8.42     0  03:48        1.46
  YS02001629           JUNCTION     1.48     1.85     8.40     0  03:48        1.83
  YS02001641           JUNCTION     1.59     1.93     8.37     0  03:48        1.93
  YS02001644           JUNCTION     1.59     1.92     8.35     0  03:38        1.92
  YS02001652           JUNCTION     1.44     1.82     8.42     0  04:17        1.81
  YS02001655           JUNCTION     1.20     1.60     8.45     0  03:47        1.57
  YS02001920           JUNCTION     0.19     0.27     7.28     0  02:39        0.27
  YS02001923           JUNCTION     0.07     0.10     7.36     0  03:01        0.10
  YS02001926           JUNCTION     0.16     0.20     7.65     0  03:01        0.20
  YS02001929           JUNCTION     0.07     0.10     7.80     0  03:01        0.10
  YS02001658           JUNCTION     0.93     1.33     8.47     0  03:47        1.30
  YS02001661           JUNCTION     0.70     1.09     8.50     0  03:47        1.06
  YS02001664           JUNCTION     0.26     0.55     8.48     0  03:46        0.52
  YS02001622           JUNCTION     1.16     1.51     8.41     0  03:48        1.49
  YS02001633           JUNCTION     1.57     1.94     8.40     0  03:48        1.92
  YS02001649           JUNCTION     1.63     2.01     8.40     0  04:17        1.99
  YS02001757           JUNCTION     1.75     2.12     8.39     0  04:05        2.10
  YS02001895           JUNCTION     0.27     0.53     7.27     0  02:36        0.53
  YS02001625           JUNCTION     1.44     1.78     8.38     0  03:40        1.78
  YS02163301           JUNCTION     1.51     1.89     8.40     0  03:48        1.86
  YS02163601           JUNCTION     1.63     1.99     8.39     0  03:45        1.97
  YS02164001           JUNCTION     1.57     1.92     8.38     0  03:48        1.91
  YS02001647           JUNCTION     1.42     1.77     8.38     0  04:17        1.76
  YSB1154              JUNCTION     0.23     0.43     9.49     0  02:11        0.43
  YSB6556              JUNCTION     0.13     0.32     9.49     0  02:10        0.32
  YSB1174              JUNCTION     0.18     0.38     9.49     0  02:11        0.38
  YSB1171              JUNCTION     0.38     0.58     9.49     0  02:11        0.58
  YS02006553           JUNCTION     0.70     0.98     7.26     0  02:37        0.98
  YS02006561           JUNCTION     0.15     0.29     6.95     0  02:38        0.28
  YS02006556           JUNCTION     0.68     0.94     7.26     0  02:38        0.94
  YS02006558           JUNCTION     0.72     0.99     7.26     0  02:37        0.99
  YS02001783           JUNCTION     0.26     0.69     6.83     0  03:13        0.68
  YS02001784           JUNCTION     0.30     0.75     6.81     0  03:13        0.71
  YS02001786           JUNCTION     0.26     0.74     6.77     0  03:14        0.73
  YS02001788           JUNCTION     0.19     0.78     6.75     0  03:13        0.76
  YS02001790           JUNCTION     0.25     1.76     7.41     0  04:26        1.05
  YS02001791           JUNCTION     0.20     1.91     7.38     0  04:24        1.17
  YS02001793           JUNCTION     0.26     1.99     6.83     0  04:24        1.79
  WSC                  OUTFALL      0.32     0.40     1.07     0  05:03        0.40
  JK-storage           STORAGE      1.93     5.80     6.60     0  03:12        5.80
  CC-storage           STORAGE      1.03     1.36     8.36     0  04:33        1.36
  XR-storage           STORAGE      2.53     5.87     3.87     0  06:04        5.87
  
  
  *******************
  Node Inflow Summary
  *******************
  
  -------------------------------------------------------------------------------------------------
                                  Maximum  Maximum                  Lateral       Total        Flow
                                  Lateral    Total  Time of Max      Inflow      Inflow     Balance
                                   Inflow   Inflow   Occurrence      Volume      Volume       Error
  Node                 Type           LPS      LPS  days hr:min    10^6 ltr    10^6 ltr     Percent
  -------------------------------------------------------------------------------------------------
  WS02001211           JUNCTION      7.35   389.51     0  04:08       0.207        8.83       0.453
  WS02001212           JUNCTION      0.00   391.58     0  04:08           0        8.79       0.255
  WS02001213           JUNCTION      0.00   393.55     0  04:07           0        8.77       0.329
  WS02003069           JUNCTION      0.32   950.79     0  05:01     0.00902        17.1       0.183
  WS02003072           JUNCTION      0.00   950.74     0  05:02           0          17       0.225
  WS02003073           JUNCTION      1.82   952.52     0  05:02      0.0514          17       0.254
  WS02003060           JUNCTION     16.53   950.51     0  05:01       0.466        17.1       0.174
  WS02003066           JUNCTION      0.00   547.25     0  04:59           0        7.93       0.048
  WS02003059           JUNCTION      0.00   396.52     0  04:07           0        8.74       0.442
  WS02003067           JUNCTION      0.00   547.25     0  04:59           0        7.94       0.103
  WS02004401           JUNCTION      0.00   555.14     0  03:55           0        8.14       0.232
  WS02004402           JUNCTION      0.00   554.30     0  03:55           0        8.12       0.222
  WS02004403           JUNCTION      0.00   553.67     0  03:55           0         8.1       0.204
  WS02004404           JUNCTION      0.16   553.59     0  03:56     0.00457        8.09       0.156
  WS02004406           JUNCTION      0.00   553.51     0  03:56           0        8.06       0.381
  WS02004409           JUNCTION      0.00   552.94     0  03:56           0        8.02       0.165
  WS02004410           JUNCTION      0.00   550.17     0  03:56           0        8.01       0.191
  WS02004411           JUNCTION      0.00   548.02     0  03:57           0           8       0.199
  WS02004412           JUNCTION      0.00   547.29     0  04:58           0        7.98       0.220
  WS02004413           JUNCTION      0.00   547.28     0  04:59           0        7.96       0.335
  WS02004405           JUNCTION      0.04   553.61     0  03:56     0.00107        8.08       0.237
  WS02006109           JUNCTION      1.23   560.36     0  03:50      0.0347        8.21       0.241
  WS02006110           JUNCTION      0.00   560.52     0  03:50           0        8.19       0.215
  WS02006111           JUNCTION      0.00   582.32     0  03:50           0        8.17       0.043
  WS02006112           JUNCTION     13.31   562.10     0  03:51      0.0347         8.2       0.304
  WS02006113           JUNCTION      0.00   561.43     0  03:50           0        8.18       0.097
  WS02006115           JUNCTION      0.00   572.86     0  03:55           0        8.17       0.210
  WS02006116           JUNCTION      0.00   557.66     0  03:55           0        8.16       0.207
  WS02006230           JUNCTION     10.28   531.81     0  04:50        0.29         7.1       0.157
  WS02006231           JUNCTION      0.00   521.68     0  04:44           0        6.81       0.136
  WS02006232           JUNCTION      0.00   521.79     0  04:44           0        6.82       0.219
  WS02006234           JUNCTION      0.00   522.15     0  04:54           0        6.83       0.090
  WS02006235           JUNCTION      0.00   524.45     0  06:30           0        6.89       0.130
  WS02006238           JUNCTION      0.00   419.34     0  07:10           0        4.36       0.157
  WS02006240           JUNCTION      0.00   417.32     0  07:10           0        4.32       0.237
  WS02006242           JUNCTION      0.00   416.96     0  07:10           0        4.32       0.293
  WS02006243           JUNCTION      0.00   416.55     0  07:10           0        4.31       0.122
  WS02006245           JUNCTION      0.00   415.76     0  07:10           0        4.31       0.165
  WS02006247           JUNCTION      0.00   414.97     0  07:10           0        4.32       0.145
  WS02006248           JUNCTION      0.00   415.35     0  07:10           0        4.32       0.104
  WS02006249           JUNCTION      0.00   426.98     0  04:42           0        4.57       0.184
  WS02006239           JUNCTION      0.00   418.61     0  07:10           0        4.34       0.160
  WS02006251           JUNCTION      0.08   412.93     0  04:42     0.00217        4.62       0.187
  WS02006252           JUNCTION      0.00   400.00     0  04:40           0        4.38       0.011
  WS02006253           JUNCTION      1.95   131.59     0  04:41     0.00449        0.24       1.656
  WS02006256           JUNCTION      0.00   983.00     0  00:00           0        5.45      -0.009
  WS02004138           JUNCTION      0.00   380.00     0  00:00           0        8.66       0.071
  WS02004139           JUNCTION      0.32   396.51     0  00:00     0.00905        8.67       0.520
  WS02004407           JUNCTION      0.00   553.34     0  03:56           0        8.03       0.075
  WS02006228           JUNCTION      0.00   559.76     0  03:50           0        8.19       0.181
  WS02006229           JUNCTION      0.00   555.87     0  03:51           0        8.21       0.154
  WS02006280           JUNCTION      0.00   306.57     0  02:12           0        1.13       0.006
  WS02006284           JUNCTION      0.10   306.53     0  02:12      0.0027        1.13       0.105
  WS02006287           JUNCTION      0.00   306.39     0  02:12           0        1.13       0.063
  WSF200               JUNCTION      0.00   547.26     0  04:59           0        7.93       0.043
  HS02004901           JUNCTION     16.38    16.38     0  02:06      0.0417      0.0419       4.379
  HS02004881           JUNCTION      6.74    60.44     0  02:10      0.0182       0.193       0.065
  HS02004876           JUNCTION     11.02    53.89     0  02:11      0.0349       0.175       0.302
  HS02004870           JUNCTION     12.02    43.15     0  02:11      0.0344       0.141       0.075
  HS02004862           JUNCTION     10.03    31.90     0  02:12      0.0401       0.106       0.159
  HS02004856           JUNCTION      8.93    21.98     0  02:11      0.0259      0.0677       2.170
  HS02004852           JUNCTION      0.00    13.61     0  02:11           0      0.0419       0.122
  HS02004848           JUNCTION     20.34    20.34     0  02:13      0.0825      0.0825       0.052
  HS02004842           JUNCTION      0.00     7.39     0  02:21           0      0.0536      31.987
  HS02004837           JUNCTION     25.84    32.11     0  02:11       0.239        0.28       0.291
  HS02004830           JUNCTION      0.15    32.23     0  02:11     0.00423        0.27       0.458
  HS02004824           JUNCTION     22.87    54.92     0  02:14       0.108       0.377       0.142
  HS02004817           JUNCTION      0.60    55.51     0  02:14      0.0169       0.393       4.427
  HS02004807           JUNCTION     22.53    76.26     0  02:13      0.0634        0.44       0.970
  HS02004802           JUNCTION      0.00    76.74     0  02:14           0       0.436       0.941
  HS02004799           JUNCTION     17.49   196.10     0  02:10      0.0513       0.605       0.392
  HS02004792           JUNCTION     77.22   178.91     0  02:09       0.221       0.554       0.074
  HS02004788           JUNCTION     25.47   103.99     0  02:10       0.118       0.334       0.117
  HS02004785           JUNCTION      0.15    78.97     0  02:09     0.00423       0.217       0.221
  HS02004777           JUNCTION      0.03    79.36     0  02:08    0.000846       0.217       2.438
  HS02004770           JUNCTION     65.32    80.51     0  02:08       0.178       0.218       1.437
  HS02004480           JUNCTION      0.00   231.35     0  02:10           0       0.709       0.107
  HS02004479           JUNCTION      0.00    36.10     0  02:11           0       0.117       0.630
  HS02004478           JUNCTION      0.00   306.37     0  02:12           0        1.13       0.050
  YS02001745           JUNCTION    111.44   136.35     0  03:00        1.17        1.17       0.486
  YS02001748           JUNCTION      0.04   370.03     0  02:49     0.00127        1.19       1.599
  YS02001751           JUNCTION      0.01   430.97     0  02:48     0.00031        1.17       1.798
  YS02001754           JUNCTION      0.26   196.36     0  02:49     0.00733        1.13       2.159
  YS02001762           JUNCTION      0.00   179.60     0  02:47           0        1.27       1.696
  YS02001765           JUNCTION      0.00   176.99     0  02:47           0        1.27       1.948
  YS02001767           JUNCTION      0.54   174.98     0  02:47      0.0151        1.29       2.831
  YS02001770           JUNCTION    144.29   175.95     0  02:47        1.35        1.37       2.343
  YS02001774           JUNCTION      0.00    49.74     0  02:07           0      0.0753      50.365
  YS02001779           JUNCTION      0.01    44.10     0  02:49    0.000141      0.0319      92.470
  YS02001882           JUNCTION      0.00     5.56     0  02:04           0     0.00717      33.850
  YS02001884           JUNCTION      0.00    15.54     0  02:04           0       0.028      22.628
  YS02001759           JUNCTION    141.60   319.58     0  02:47        1.25        2.49       0.927
  YS02001887           JUNCTION    187.62   187.96     0  02:31        1.48        1.49       0.503
  YS02001890           JUNCTION      0.00   187.10     0  02:30           0        1.46       0.562
  YS02001898           JUNCTION      0.00   186.02     0  02:29           0        1.45       0.169
  YS02001901           JUNCTION      0.00   186.07     0  02:36           0        1.45       0.406
  YS02001904           JUNCTION      0.00   185.46     0  02:36           0        1.45       0.376
  YS02001907           JUNCTION      0.00   334.06     0  02:38           0        3.13       0.726
  YS02001910           JUNCTION      0.00   153.35     0  02:57           0        1.69       0.627
  YS02001915           JUNCTION    100.17   150.09     0  02:49       0.994         1.7       0.289
  YS02001918           JUNCTION      0.00    51.45     0  03:00           0       0.706       0.191
  YS02001619           JUNCTION     97.30    97.30     0  02:41       0.983       0.983       1.192
  YS02001629           JUNCTION      0.00   208.67     0  02:53           0       0.906       3.118
  YS02001641           JUNCTION      0.00   218.38     0  02:49           0        1.96       1.084
  YS02001644           JUNCTION    105.80   323.55     0  02:49        1.12        3.15       0.821
  YS02001652           JUNCTION      0.00   183.68     0  02:50           0        1.05       2.276
  YS02001655           JUNCTION      0.15   355.53     0  02:53     0.00434        1.07       2.016
  YS02001920           JUNCTION      2.87    50.60     0  03:01      0.0809       0.708       0.323
  YS02001923           JUNCTION      0.04    47.73     0  03:01     0.00106       0.628       0.058
  YS02001926           JUNCTION      0.05    47.71     0  03:01     0.00147       0.629       0.401
  YS02001929           JUNCTION     47.66    47.66     0  03:01       0.628       0.628       0.056
  YS02001658           JUNCTION      0.00   360.98     0  02:56           0        1.11       1.462
  YS02001661           JUNCTION      0.00   416.13     0  03:44           0        1.42       0.226
  YS02001664           JUNCTION    132.77   356.25     0  03:44        1.09        1.39       0.081
  YS02001622           JUNCTION      0.00   150.29     0  02:53           0       0.972       3.304
  YS02001633           JUNCTION    107.43   219.04     0  02:49        1.16        2.02       1.609
  YS02001649           JUNCTION      0.00   485.36     0  02:45           0        3.69       1.016
  YS02001757           JUNCTION      0.00   848.74     0  02:49           0         7.1       1.301
  YS02001895           JUNCTION      0.00   186.16     0  02:29           0        1.45       0.277
  YS02001625           JUNCTION      0.00   209.11     0  02:53           0       0.941       4.329
  YS02163301           JUNCTION      0.00   111.54     0  02:49           0       0.892       2.761
  YS02163601           JUNCTION      0.11   219.17     0  02:49      0.0031        1.98       1.540
  YS02164001           JUNCTION      0.00   219.24     0  02:49           0        1.96       1.035
  YS02001647           JUNCTION      0.00   322.62     0  02:49           0        2.74       1.025
  YSB1154              JUNCTION     19.60    19.60     0  02:09      0.0622      0.0634       2.331
  YSB6556              JUNCTION      0.00    19.47     0  02:11           0      0.0643       1.977
  YSB1174              JUNCTION     18.42    18.42     0  02:06      0.0452       0.046       2.870
  YSB1171              JUNCTION      0.00    35.93     0  02:10           0       0.116       5.778
  YS02006553           JUNCTION      0.00   333.26     0  02:38           0        3.12       0.470
  YS02006561           JUNCTION      0.00   535.13     0  02:38           0        4.41       0.001
  YS02006556           JUNCTION      0.00   334.79     0  02:38           0        3.12       0.342
  YS02006558           JUNCTION    157.89   493.67     0  02:38        1.35        4.44       0.118
  YS02001783           JUNCTION      0.00   489.24     0  02:38           0        4.41       0.039
  YS02001784           JUNCTION      1.06   489.59     0  02:38      0.0299        4.44       0.061
  YS02001786           JUNCTION      0.06   489.52     0  02:38     0.00159        4.44       0.060
  YS02001788           JUNCTION      0.07   489.61     0  02:38       0.002        4.44       0.034
  YS02001790           JUNCTION      0.15   498.57     0  03:25     0.00437        4.44       0.013
  YS02001791           JUNCTION      0.00   545.37     0  03:25           0        4.44       0.025
  YS02001793           JUNCTION      0.00   573.28     0  03:25           0        4.45      -0.056
  WSC                  OUTFALL       0.00   952.48     0  05:03           0          17       0.000
  JK-storage           STORAGE       0.00   687.57     0  03:08           0         4.6     -19.773
  CC-storage           STORAGE       0.00   851.80     0  02:49           0        6.97       0.762
  XR-storage           STORAGE     402.72   402.72     0  02:41           8         8.6      -0.759
  
  
  **********************
  Node Surcharge Summary
  **********************
  
  Surcharging occurs when water rises above the top of the highest conduit.
  ---------------------------------------------------------------------
                                               Max. Height   Min. Depth
                                   Hours       Above Crown    Below Rim
  Node                 Type      Surcharged         Meters       Meters
  ---------------------------------------------------------------------
  WS02006109           JUNCTION        2.64          0.182        1.638
  WS02006110           JUNCTION        1.22          0.032        1.818
  WS02006112           JUNCTION        1.34          0.121        1.559
  WS02006230           JUNCTION        1.04          0.063        1.507
  WS02006231           JUNCTION        1.36          0.174        1.356
  WS02006232           JUNCTION        2.17          0.379        1.101
  WS02006234           JUNCTION        1.85          0.487        0.753
  WS02006235           JUNCTION        2.03          0.466        0.824
  WS02006238           JUNCTION        2.08          0.489        0.941
  WS02006240           JUNCTION        1.77          0.440        0.950
  WS02006242           JUNCTION        1.92          0.506        0.314
  WS02006243           JUNCTION        1.62          0.503        0.267
  WS02006245           JUNCTION        1.54          0.413        0.437
  WS02006247           JUNCTION        1.56          0.430        0.330
  WS02006248           JUNCTION        1.46          0.363        0.017
  WS02006249           JUNCTION        1.49          0.390        0.000
  WS02006239           JUNCTION        1.90          0.448        0.842
  WS02006251           JUNCTION        1.15          0.384        0.796
  WS02006252           JUNCTION        2.40          0.578        0.522
  WS02006253           JUNCTION        1.17          0.403        2.077
  WS02006256           JUNCTION        6.24          2.050        0.000
  WS02006228           JUNCTION        2.59          0.222        1.978
  YS02001748           JUNCTION        3.24          0.208        0.982
  YS02001751           JUNCTION        4.79          0.494        0.706
  YS02001754           JUNCTION        5.19          0.720        0.430
  YS02001762           JUNCTION        5.52          1.005        0.145
  YS02001765           JUNCTION        5.49          0.959        0.141
  YS02001767           JUNCTION        5.47          0.917        0.113
  YS02001770           JUNCTION        5.45          0.911        0.009
  YS02001774           JUNCTION        5.51          1.004        0.046
  YS02001779           JUNCTION        5.07          0.680        0.000
  YS02001759           JUNCTION        5.54          1.029        0.181
  YS02001619           JUNCTION        4.58          0.493        0.117
  YS02001629           JUNCTION        4.59          0.470        0.000
  YS02001641           JUNCTION        5.50          0.932        0.168
  YS02001644           JUNCTION        5.50          0.920        0.000
  YS02001652           JUNCTION        5.30          0.794        0.336
  YS02001655           JUNCTION        4.83          0.596        0.604
  YS02001658           JUNCTION        3.30          0.331        0.969
  YS02001661           JUNCTION        0.01          0.024        1.366
  YS02001622           JUNCTION        4.76          0.509        0.111
  YS02001633           JUNCTION        5.49          0.924        0.136
  YS02001649           JUNCTION        5.53          1.007        0.043
  YS02001757           JUNCTION        5.59          1.125        0.085
  YS02001625           JUNCTION        5.41          0.780        0.000
  YS02163301           JUNCTION        5.47          0.886        0.144
  YS02163601           JUNCTION        5.52          0.988        0.092
  YS02164001           JUNCTION        5.50          0.919        0.181
  YS02001647           JUNCTION        5.36          0.772        0.128
  YS02001790           JUNCTION        0.36          0.961        0.196
  YS02001791           JUNCTION        0.44          1.114        0.806
  YS02001793           JUNCTION        0.69          0.994        1.606
  
  
  *********************
  Node Flooding Summary
  *********************
  
  Flooding refers to all water that overflows a node, whether it ponds or not.
  --------------------------------------------------------------------------
                                                             Total   Maximum
                                 Maximum   Time of Max       Flood    Ponded
                        Hours       Rate    Occurrence      Volume     Depth
  Node                 Flooded       LPS   days hr:min    10^6 ltr    Meters
  --------------------------------------------------------------------------
  WS02006249              1.11    110.59      0  03:49       0.239     0.000
  WS02006256              2.34    978.40      0  00:00       2.876     0.000
  YS02001779              0.40     14.91      0  02:55       0.004     0.000
  YS02001629              0.01      2.89      0  03:48       0.000     0.000
  YS02001644              1.02    276.18      0  04:38       0.446     0.000
  YS02001625              0.03     15.02      0  03:48       0.000     0.000
  JK-storage              0.22    316.65      0  03:14       0.131     0.000
  
  
  **********************
  Storage Volume Summary
  **********************
  
  --------------------------------------------------------------------------------------------------
                         Average     Avg  Evap Exfil       Maximum     Max    Time of Max    Maximum
                          Volume    Pcnt  Pcnt  Pcnt        Volume    Pcnt     Occurrence    Outflow
  Storage Unit           1000 m3    Full  Loss  Loss       1000 m3    Full    days hr:min        LPS
  --------------------------------------------------------------------------------------------------
  JK-storage               0.097      33     0     0         0.291     100       0  03:12     983.00
  CC-storage               2.871      18     0     0         3.804      24       0  04:33     400.00
  XR-storage               0.304      33     0     0         0.704      76       0  06:04     380.00
  
  
  ***********************
  Outfall Loading Summary
  ***********************
  
  ---------------------------------------------------------------------------------------------------------------------------------
                         Flow       Avg       Max       Total         Total         Total         Total         Total         Total
                         Freq      Flow      Flow      Volume           COD            SS            TN            TP         NH4-N
  Outfall Node           Pcnt       LPS       LPS    10^6 ltr            kg            kg            kg            kg            kg
  ---------------------------------------------------------------------------------------------------------------------------------
  WSC                   99.98    674.89    952.48      17.006      2125.804      3478.061       166.340        20.198       102.396
  ---------------------------------------------------------------------------------------------------------------------------------
  System                99.98    674.89    952.48      17.006      2125.804      3478.061       166.340        20.198       102.396
  
  
  ********************
  Link Flow Summary
  ********************
  
  -----------------------------------------------------------------------------
                                 Maximum  Time of Max   Maximum    Max/    Max/
                                  |Flow|   Occurrence   |Veloc|    Full    Full
  Link                 Type          LPS  days hr:min     m/sec    Flow   Depth
  -----------------------------------------------------------------------------
  WS02003066WSF200     CONDUIT    547.26     0  04:59      2.77    0.09    0.23
  WS02006287WS02006284 CONDUIT    306.44     0  02:12      1.85    0.14    0.26
  WS02006284WS02006280 CONDUIT    306.57     0  02:12      2.09    0.13    0.24
  WS02006280WS02006229 CONDUIT    306.57     0  02:12      3.37    0.07    0.17
  WS02006229WS02006228 CONDUIT    559.76     0  03:50      1.11    1.85    1.00
  WS02006256WS02006235 CONDUIT    288.60     0  00:00      4.23    3.05    1.00
  WS02006253WS02006251 CONDUIT    130.06     0  04:41      0.57    0.39    1.00
  WS02006252WS02006251 CONDUIT    404.17     0  04:42      3.22    1.48    1.00
  WS02006251WS02006249 CONDUIT    426.98     0  04:42      1.11    1.23    1.00
  WS02006249WS02006248 CONDUIT    415.35     0  07:10      1.14    2.28    1.00
  WS02006248WS02006247 CONDUIT    414.97     0  07:10      1.10    0.90    1.00
  WS02006247WS02006245 CONDUIT    415.76     0  07:10      1.08    3.30    1.00
  WS02006245WS02006243 CONDUIT    416.55     0  07:10      1.09    1.23    1.00
  WS02006243WS02006242 CONDUIT    416.96     0  07:10      1.08    0.89    1.00
  WS02006242WS02006240 CONDUIT    417.32     0  07:10      1.08    1.66    1.00
  WS02006240WS02006239 CONDUIT    418.61     0  07:10      1.09    1.32    1.00
  WS02006239WS02006238 CONDUIT    419.34     0  07:10      1.09    1.34    1.00
  WS02006238WS02006235 CONDUIT    420.19     0  07:10      1.46    0.94    1.00
  WS02006235WS02006234 CONDUIT    522.15     0  04:54      1.36    5.51    1.00
  WS02006234WS02006232 CONDUIT    521.79     0  04:44      1.39    1.06    1.00
  WS02006232WS02006231 CONDUIT    521.68     0  04:44      1.36    1.09    1.00
  WS02006231WS02006230 CONDUIT    521.53     0  04:50      1.36    7.91    1.00
  WS02006230WS02006229 CONDUIT    534.41     0  04:43      1.39   11.89    1.00
  WS02006228WS02006109 CONDUIT    559.13     0  03:50      1.11    2.44    1.00
  WS02006116WS02004401 CONDUIT    555.14     0  03:55      0.79    0.77    0.85
  WS02006115WS02006116 CONDUIT    557.66     0  03:55      0.89    0.72    0.77
  WS02006113WS02006111 CONDUIT    582.32     0  03:50      2.50    0.70    0.47
  WS02006112WS02006115 CONDUIT    572.86     0  03:55      0.79    0.34    0.88
  WS02006111WS02006112 CONDUIT    561.81     0  03:51      1.55    0.27    0.68
  WS02006110WS02006113 CONDUIT    561.43     0  03:50      1.32    0.51    0.79
  WS02006109WS02006110 CONDUIT    560.52     0  03:50      1.12    1.08    1.00
  WS02004411WS02004412 CONDUIT    547.29     0  04:58      0.93    0.78    0.70
  WS02004401WS02004402 CONDUIT    554.30     0  03:55      0.76    0.67    0.88
  WS02004413WS02003067 CONDUIT    547.25     0  04:59      1.12    0.23    0.60
  WS02004412WS02004413 CONDUIT    547.28     0  04:59      0.83    0.37    0.78
  WS02004410WS02004411 CONDUIT    548.02     0  03:57      0.95    0.75    0.69
  WS02004409WS02004410 CONDUIT    550.17     0  03:56      0.97    0.71    0.68
  WS02004407WS02004409 CONDUIT    552.94     0  03:56      1.48    0.20    0.49
  WS02004406WS02004407 CONDUIT    553.34     0  03:56      1.06    0.25    0.63
  WS02004405WS02004406 CONDUIT    553.51     0  03:56      0.71    1.09    0.97
  WS02004404WS02004405 CONDUIT    553.57     0  03:56      0.71    5.42    0.97
  WS02004403WS02004404 CONDUIT    553.42     0  03:56      0.72    0.40    0.94
  WS02004402WS02004403 CONDUIT    553.67     0  03:55      0.75    0.80    0.90
  WS02004139WS02001211 CONDUIT    382.17     0  04:08      0.90    0.48    0.60
  WS02004138WS02004139 CONDUIT    396.19     0  00:00      3.65    0.08    0.44
  WS02003067WS02003066 CONDUIT    547.25     0  04:59      1.22    0.18    0.42
  WS02001213WS02003059 CONDUIT    396.52     0  04:07      0.88    0.65    0.78
  WS02001212WS02001213 CONDUIT    393.55     0  04:07      1.32    0.61    0.47
  WS02001211WS02001212 CONDUIT    391.58     0  04:08      0.78    0.30    0.65
  WS02003072WS02003073 CONDUIT    950.70     0  05:02      1.73    2.05    0.49
  WS02003069WS02003072 CONDUIT    950.74     0  05:02      1.63    0.46    0.51
  WS02003060WS02003069 CONDUIT    950.47     0  05:01      1.87    0.37    0.46
  WS02003059WS02003060 CONDUIT    400.24     0  04:07      0.95    0.26    0.67
  HS02004901HS02004770 CONDUIT     15.52     0  02:08      0.06    0.06    0.37
  HS02004876HS02004881 CONDUIT     54.11     0  02:11      0.79    0.58    0.10
  HS02004870HS02004876 CONDUIT     43.11     0  02:12      0.54    0.03    0.11
  HS02004842HS02004848 CONDUIT      7.39     0  02:21      0.04    0.00    0.29
  HS02004837HS02004842 CONDUIT      7.72     0  02:22      0.42    0.00    0.30
  HS02004830HS02004837 CONDUIT     32.08     0  02:11      0.50    0.03    0.09
  HS02004824HS02004830 CONDUIT     32.22     0  02:12      0.54    0.04    0.09
  HS02004817HS02004824 CONDUIT     54.91     0  02:14      0.18    0.02    0.44
  HS02004770HS02004777 CONDUIT     79.33     0  02:08      0.30    0.15    0.39
  HS02004799HS02004480 CONDUIT    195.77     0  02:10      0.73    0.25    0.39
  HS02004792HS02004799 CONDUIT    178.83     0  02:10      0.83    0.11    0.31
  HS02004788HS02004792 CONDUIT    103.89     0  02:10      0.96    0.07    0.15
  HS02004785HS02004788 CONDUIT     78.86     0  02:10      0.62    0.59    0.18
  HS02004777HS02004785 CONDUIT     78.82     0  02:09      0.35    0.10    0.32
  HS02004480HS02004478 CONDUIT    231.38     0  02:11      1.13    0.97    0.29
  HS02004479HS02004480 CONDUIT     36.45     0  02:12      0.17    0.04    0.37
  HS02004862HS02004870 CONDUIT     31.85     0  02:12      0.56    0.03    0.08
  HS02004848HS02004852 CONDUIT     13.61     0  02:11      0.38    0.02    0.05
  HS02004856HS02004862 CONDUIT     21.93     0  02:12      0.41    0.02    0.08
  HS02004852HS02004856 CONDUIT     13.54     0  02:13      0.18    0.02    0.11
  HS02004802HS02004478 CONDUIT     77.41     0  02:14      0.37    0.07    0.31
  HS02004478WS02006287 CONDUIT    306.39     0  02:12      1.55    0.09    0.22
  HS02004817HS02004807 CONDUIT     56.37     0  02:15      0.14    0.03    0.57
  HS02004807HS02004802 CONDUIT     76.74     0  02:14      0.31    0.15    0.36
  YS02001759YS02001757 CONDUIT    321.83     0  02:47      0.41    0.23    1.00
  YS02001762YS02001759 CONDUIT    182.33     0  02:47      0.23    0.21    1.00
  YS02001765YS02001762 CONDUIT    179.60     0  02:47      0.24    0.17    1.00
  YS02001770YS02001767 CONDUIT    174.45     0  02:47      0.30    0.69    1.00
  YS02001774YS02001770 CONDUIT     49.74     0  02:07      0.13    0.03    1.00
  YS02001779YS02001774 CONDUIT     44.09     0  02:49      0.07    0.02    1.00
  YS02001649YS02001757 CONDUIT    486.10     0  02:43      0.62    0.29    1.00
  YS02001767YS02001765 CONDUIT    176.99     0  02:47      0.27    0.22    1.00
  YS02006561YS02001783 CONDUIT    489.24     0  02:38      1.98    0.25    0.59
  YS02001783YS02001784 CONDUIT    488.53     0  02:38      1.42    0.67    0.88
  YS02001784YS02001785 CONDUIT    489.47     0  02:38      1.53    1.14    0.93
  YS02001788YS02001790 CONDUIT    498.42     0  03:25      2.09    0.37    0.99
  YS02001790YS02001791 CONDUIT    545.37     0  03:25      2.46    0.59    1.00
  YS02001791YS02001793 CONDUIT    573.28     0  03:25      5.02    0.25    1.00
  YS02001910YS02001907 CONDUIT    154.25     0  02:58      0.49    0.09    0.86
  YS02001786YS02001788 CONDUIT    489.54     0  02:38      1.99    0.94    0.94
  YS02001915YS02001910 CONDUIT    153.35     0  02:57      0.45    0.08    0.65
  YS02001918YS02001915 CONDUIT     53.47     0  03:03      0.44    0.03    0.37
  YS02001923YS02001920 CONDUIT     47.73     0  03:01      0.53    0.02    0.18
  YS02001926YS02001923 CONDUIT     47.69     0  03:01      0.58    0.07    0.16
  YS02001929YS02001926 CONDUIT     47.66     0  03:01      0.62    0.02    0.15
  YS02001920YS02001918 CONDUIT     51.45     0  03:00      0.53    0.05    0.23
  YS02001629YS02163301 CONDUIT    111.54     0  02:49      0.14    0.14    1.00
  YS02001619YS02001622 CONDUIT    150.29     0  02:53      0.71    0.22    1.00
  YS02001622YS02001625 CONDUIT    209.11     0  02:53      0.29    0.11    1.00
  YS02001625YS02001629 CONDUIT    208.67     0  02:53      0.29    0.10    1.00
  YS02163301YS02001633 CONDUIT    111.87     0  02:49      0.14    0.11    1.00
  YS02163601YS02164001 CONDUIT    219.24     0  02:49      0.28    0.19    1.00
  YS02164001YS02001641 CONDUIT    218.38     0  02:49      0.28    0.30    1.00
  YS02001641YS02001644 CONDUIT    218.11     0  02:49      0.28    0.71    1.00
  YS02001647YS02001649 CONDUIT    320.96     0  02:50      0.41    0.17    1.00
  YS02006553YS02006556 CONDUIT    334.79     0  02:38      0.44    0.29    0.94
  YS02006556YS02006558 CONDUIT    339.59     0  02:56      0.44    0.27    0.97
  YSB6556YSB1171       CONDUIT     19.80     0  02:13      0.08    0.02    0.64
  YS02001907YS02006553 CONDUIT    333.26     0  02:38      0.37    0.39    1.00
  YS02006558YS02006561 CONDUIT    535.13     0  02:38      2.82    1.18    0.64
  YS02001633YS02163601 CONDUIT    219.06     0  02:49      0.28    0.23    1.00
  YS02001644YS02001647 CONDUIT    322.62     0  02:49      0.41    0.19    1.00
  YS02001745YS02001748 CONDUIT    249.58     0  02:51      1.55    0.10    0.92
  YS02001748YS02001751 CONDUIT    430.96     0  02:48      1.19    0.22    1.00
  YS02001751YS02001754 CONDUIT    196.10     0  02:49      0.93    0.09    1.00
  YS02001754YS02001757 CONDUIT    202.67     0  02:49      0.33    0.08    1.00
  YS02001882YS02001884 CONDUIT      5.56     0  02:04      0.07    0.01    0.59
  YS02001884YS02001887 CONDUIT     15.54     0  02:04      0.05    0.02    0.68
  YS02001890YS02001895 CONDUIT    186.16     0  02:29      0.35    0.09    0.65
  YS02001895YS02001898 CONDUIT    186.02     0  02:29      0.48    0.32    0.51
  YS02001898YS02001901 CONDUIT    186.07     0  02:36      0.39    0.12    0.59
  YS02001901YS02001904 CONDUIT    185.46     0  02:36      0.35    0.29    0.64
  YS02001904YS02001907 CONDUIT    186.13     0  02:35      0.28    0.07    0.80
  YS02001887YS02001890 CONDUIT    187.10     0  02:30      0.31    0.32    0.74
  YS02001652YS02001649 CONDUIT    185.24     0  02:43      0.36    0.09    1.00
  YS02001655YS02001652 CONDUIT    183.68     0  02:50      0.97    0.09    1.00
  YS02001658YS02001655 CONDUIT    355.37     0  02:53      1.38    0.15    1.00
  YS02001661YS02001658 CONDUIT    360.98     0  02:56      1.62    0.14    1.00
  YS02001664YS02001661 CONDUIT    416.13     0  03:44      1.36    0.13    0.70
  YSB1154YSB6556       CONDUIT     19.47     0  02:11      0.19    0.04    0.53
  YSB1174YSB1171       CONDUIT     17.26     0  02:07      0.07    0.03    0.65
  YSB1171HS02004479    CONDUIT     36.10     0  02:11      0.54    0.02    0.51
  HS02004881HS02006253 CONDUIT     60.43     0  02:11      1.97    0.01    0.50
  YS02001793JiankangQianchi CONDUIT    687.57     0  03:08     15.25    0.05    1.00
  YS02001757CaochengTiaoxuchi CONDUIT    851.80     0  02:49      1.64    0.37    1.00
  WSF200WS02003060     CONDUIT    547.28     0  05:00      1.86    0.12    0.34
  1                    CONDUIT    952.48     0  05:03      3.28    0.33    0.40
  CC-Pump-1            PUMP       200.00     0  03:40              1.00
  CC-Pump-2            PUMP       200.00     0  04:40              1.00
  JK-Pump-1            PUMP       300.00     0  00:00              1.00
  JK-Pump-2            PUMP       683.00     0  00:00              1.00
  XR-Pump-1            PUMP        95.00     0  00:00              1.00
  XR-Pump-2            PUMP        95.00     0  00:00              1.00
  XR-Pump-3            PUMP        95.00     0  00:00              1.00
  XR-Pump-4            PUMP        95.00     0  00:00              1.00
  
  
  ***************************
  Flow Classification Summary
  ***************************
  
  -------------------------------------------------------------------------------------
                      Adjusted    ---------- Fraction of Time in Flow Class ---------- 
                       /Actual         Up    Down  Sub   Sup   Up    Down  Norm  Inlet 
  Conduit               Length    Dry  Dry   Dry   Crit  Crit  Crit  Crit  Ltd   Ctrl  
  -------------------------------------------------------------------------------------
  WS02003066WSF200        1.00   0.02  0.06  0.00  0.00  0.92  0.00  0.00  0.54  0.00
  WS02006287WS02006284    1.00   0.03  0.02  0.00  0.79  0.16  0.00  0.00  0.76  0.00
  WS02006284WS02006280    1.00   0.04  0.00  0.00  0.00  0.00  0.00  0.96  0.00  0.00
  WS02006280WS02006229    1.00   0.04  0.00  0.00  0.00  0.00  0.00  0.96  0.00  0.00
  WS02006229WS02006228    1.00   0.00  0.00  0.00  1.00  0.00  0.00  0.00  0.00  0.00
  WS02006256WS02006235    1.00   0.00  0.00  0.00  1.00  0.00  0.00  0.00  0.00  0.00
  WS02006253WS02006251    1.00   0.01  0.02  0.00  0.97  0.00  0.00  0.00  0.00  0.00
  WS02006252WS02006251    1.00   0.19  0.00  0.00  0.09  0.00  0.72  0.00  0.00  0.00
  WS02006251WS02006249    1.00   0.00  0.00  0.00  1.00  0.00  0.00  0.00  0.31  0.00
  WS02006249WS02006248    1.00   0.00  0.01  0.00  0.90  0.00  0.09  0.00  0.00  0.00
  WS02006248WS02006247    1.00   0.01  0.00  0.00  0.98  0.00  0.00  0.01  0.18  0.00
  WS02006247WS02006245    1.00   0.01  0.00  0.00  0.97  0.00  0.00  0.02  0.00  0.00
  WS02006245WS02006243    1.00   0.00  0.00  0.00  0.93  0.00  0.00  0.07  0.02  0.00
  WS02006243WS02006242    1.00   0.00  0.00  0.00  1.00  0.00  0.00  0.00  0.31  0.00
  WS02006242WS02006240    1.00   0.00  0.00  0.00  1.00  0.00  0.00  0.00  0.00  0.00
  WS02006240WS02006239    1.00   0.00  0.00  0.00  0.93  0.00  0.00  0.07  0.02  0.00
  WS02006239WS02006238    1.00   0.00  0.00  0.00  1.00  0.00  0.00  0.00  0.21  0.00
  WS02006238WS02006235    1.00   0.00  0.00  0.00  1.00  0.00  0.00  0.00  0.00  0.00
  WS02006235WS02006234    1.00   0.00  0.00  0.00  0.94  0.00  0.06  0.00  0.00  0.00
  WS02006234WS02006232    1.00   0.00  0.00  0.00  1.00  0.00  0.00  0.00  0.16  0.00
  WS02006232WS02006231    1.00   0.00  0.00  0.00  1.00  0.00  0.00  0.00  0.00  0.00
  WS02006231WS02006230    1.00   0.00  0.00  0.00  0.61  0.00  0.39  0.00  0.00  0.00
  WS02006230WS02006229    1.00   0.00  0.00  0.00  1.00  0.00  0.00  0.00  0.01  0.00
  WS02006228WS02006109    1.00   0.00  0.00  0.00  1.00  0.00  0.00  0.00  0.00  0.00
  WS02006116WS02004401    1.00   0.01  0.00  0.00  0.99  0.00  0.00  0.00  0.01  0.00
  WS02006115WS02006116    1.00   0.01  0.00  0.00  0.97  0.00  0.00  0.02  0.01  0.00
  WS02006113WS02006111    1.00   0.01  0.00  0.00  0.00  0.99  0.00  0.00  0.17  0.00
  WS02006112WS02006115    1.00   0.01  0.00  0.00  0.99  0.00  0.00  0.00  0.00  0.00
  WS02006111WS02006112    1.00   0.01  0.00  0.00  0.99  0.00  0.00  0.00  0.98  0.00
  WS02006110WS02006113    1.00   0.00  0.00  0.00  0.99  0.00  0.00  0.00  0.00  0.00
  WS02006109WS02006110    1.00   0.00  0.00  0.00  0.99  0.00  0.00  0.00  0.00  0.00
  WS02004411WS02004412    1.00   0.06  0.00  0.00  0.94  0.00  0.00  0.00  0.00  0.00
  WS02004401WS02004402    1.00   0.01  0.00  0.00  0.99  0.00  0.00  0.00  0.01  0.00
  WS02004413WS02003067    1.00   0.06  0.02  0.00  0.00  0.00  0.92  0.00  0.00  0.00
  WS02004412WS02004413    1.00   0.06  0.00  0.00  0.94  0.00  0.00  0.00  0.01  0.00
  WS02004410WS02004411    1.00   0.06  0.00  0.00  0.94  0.00  0.00  0.00  0.00  0.00
  WS02004409WS02004410    1.00   0.06  0.00  0.00  0.94  0.00  0.00  0.00  0.00  0.00
  WS02004407WS02004409    1.00   0.06  0.00  0.00  0.94  0.00  0.00  0.00  0.78  0.00
  WS02004406WS02004407    1.00   0.00  0.05  0.00  0.94  0.00  0.00  0.00  0.00  0.00
  WS02004405WS02004406    1.00   0.00  0.00  0.00  1.00  0.00  0.00  0.00  0.02  0.00
  WS02004404WS02004405    1.00   0.00  0.00  0.00  1.00  0.00  0.00  0.00  0.00  0.00
  WS02004403WS02004404    1.00   0.00  0.01  0.00  0.99  0.00  0.00  0.00  0.02  0.00
  WS02004402WS02004403    1.00   0.01  0.00  0.00  0.99  0.00  0.00  0.00  0.00  0.00
  WS02004139WS02001211    1.00   0.00  0.00  0.00  1.00  0.00  0.00  0.00  0.00  0.00
  WS02004138WS02004139    1.00   0.00  0.00  0.00  1.00  0.00  0.00  0.00  1.00  0.00
  WS02003067WS02003066    1.00   0.08  0.00  0.00  0.92  0.00  0.00  0.00  0.00  0.00
  WS02001213WS02003059    1.00   0.00  0.00  0.00  1.00  0.00  0.00  0.00  0.00  0.00
  WS02001212WS02001213    1.00   0.00  0.00  0.00  0.90  0.00  0.10  0.00  0.00  0.00
  WS02001211WS02001212    1.00   0.00  0.00  0.00  1.00  0.00  0.00  0.00  0.00  0.00
  WS02003072WS02003073    1.00   0.00  0.00  0.00  0.00  0.00  0.00  1.00  0.00  0.00
  WS02003069WS02003072    1.00   0.00  0.00  0.00  1.00  0.00  0.00  0.00  0.20  0.00
  WS02003060WS02003069    1.00   0.00  0.00  0.00  0.99  0.01  0.00  0.00  0.13  0.00
  WS02003059WS02003060    1.00   0.00  0.00  0.00  1.00  0.00  0.00  0.00  0.00  0.00
  HS02004901HS02004770    1.00   0.03  0.00  0.00  0.96  0.00  0.00  0.00  0.01  0.00
  HS02004876HS02004881    1.00   0.01  0.00  0.00  0.99  0.00  0.00  0.00  0.00  0.00
  HS02004870HS02004876    1.00   0.00  0.00  0.00  1.00  0.00  0.00  0.00  0.95  0.00
  HS02004842HS02004848    1.00   0.00  0.04  0.00  0.96  0.00  0.00  0.00  0.65  0.00
  HS02004837HS02004842    1.00   0.00  0.00  0.00  1.00  0.00  0.00  0.00  0.11  0.00
  HS02004830HS02004837    1.00   0.00  0.00  0.00  1.00  0.00  0.00  0.00  0.99  0.00
  HS02004824HS02004830    1.00   0.00  0.00  0.00  1.00  0.00  0.00  0.00  0.00  0.00
  HS02004817HS02004824    1.00   0.00  0.00  0.00  1.00  0.00  0.00  0.00  1.00  0.00
  HS02004770HS02004777    1.00   0.00  0.04  0.00  0.96  0.00  0.00  0.00  0.06  0.00
  HS02004799HS02004480    1.00   0.00  0.01  0.00  0.95  0.00  0.04  0.00  0.00  0.00
  HS02004792HS02004799    1.00   0.00  0.00  0.00  1.00  0.00  0.00  0.00  0.98  0.00
  HS02004788HS02004792    1.00   0.00  0.00  0.00  1.00  0.00  0.00  0.00  0.98  0.00
  HS02004785HS02004788    1.00   0.00  0.00  0.00  1.00  0.00  0.00  0.00  0.00  0.00
  HS02004777HS02004785    1.00   0.00  0.00  0.00  1.00  0.00  0.00  0.00  0.17  0.00
  HS02004480HS02004478    1.00   0.04  0.00  0.00  0.82  0.00  0.00  0.14  0.00  0.00
  HS02004479HS02004480    1.00   0.01  0.00  0.00  0.99  0.00  0.00  0.00  0.15  0.00
  HS02004862HS02004870    1.00   0.00  0.00  0.00  1.00  0.00  0.00  0.00  0.05  0.00
  HS02004848HS02004852    1.00   0.04  0.00  0.00  0.96  0.00  0.00  0.00  0.72  0.00
  HS02004856HS02004862    1.00   0.00  0.06  0.00  0.94  0.00  0.00  0.00  0.77  0.00
  HS02004852HS02004856    1.00   0.04  0.01  0.00  0.96  0.00  0.00  0.00  0.83  0.00
  HS02004802HS02004478    1.00   0.04  0.01  0.00  0.96  0.00  0.00  0.00  0.01  0.00
  HS02004478WS02006287    1.00   0.05  0.00  0.00  0.89  0.06  0.00  0.00  0.74  0.00
  HS02004817HS02004807    1.00   0.00  0.04  0.00  0.96  0.00  0.00  0.00  0.00  0.00
  HS02004807HS02004802    1.00   0.04  0.00  0.00  0.96  0.00  0.00  0.00  0.01  0.00
  YS02001759YS02001757    1.00   0.00  0.00  0.00  1.00  0.00  0.00  0.00  0.18  0.00
  YS02001762YS02001759    1.00   0.00  0.00  0.00  1.00  0.00  0.00  0.00  0.04  0.00
  YS02001765YS02001762    1.00   0.00  0.00  0.00  1.00  0.00  0.00  0.00  0.20  0.00
  YS02001770YS02001767    1.00   0.00  0.00  0.00  1.00  0.00  0.00  0.00  0.00  0.00
  YS02001774YS02001770    1.00   0.00  0.04  0.00  0.96  0.00  0.00  0.00  0.05  0.00
  YS02001779YS02001774    1.00   0.00  0.00  0.00  1.00  0.00  0.00  0.00  0.24  0.00
  YS02001649YS02001757    1.00   0.00  0.00  0.00  1.00  0.00  0.00  0.00  0.18  0.00
  YS02001767YS02001765    1.00   0.00  0.00  0.00  1.00  0.00  0.00  0.00  0.01  0.00
  YS02006561YS02001783    1.00   0.06  0.00  0.00  0.04  0.90  0.00  0.00  0.63  0.00
  YS02001783YS02001784    1.00   0.00  0.07  0.00  0.93  0.00  0.00  0.00  0.00  0.00
  YS02001784YS02001785    1.00   0.00  0.00  0.00  1.00  0.00  0.00  0.00  0.23  0.00
  YS02001788YS02001790    1.00   0.00  0.00  0.00  0.14  0.86  0.00  0.00  0.67  0.00
  YS02001790YS02001791    1.00   0.00  0.00  0.00  0.11  0.89  0.00  0.00  0.57  0.00
  YS02001791YS02001793    1.00   0.00  0.00  0.00  0.18  0.82  0.00  0.00  0.05  0.00
  YS02001910YS02001907    1.00   0.00  0.00  0.00  0.99  0.00  0.00  0.01  0.13  0.00
  YS02001786YS02001788    1.00   0.00  0.00  0.00  0.12  0.88  0.00  0.00  0.00  0.00
  YS02001915YS02001910    1.00   0.00  0.00  0.00  1.00  0.00  0.00  0.00  0.22  0.00
  YS02001918YS02001915    1.00   0.00  0.00  0.00  0.99  0.00  0.00  0.00  0.68  0.00
  YS02001923YS02001920    1.00   0.00  0.00  0.00  1.00  0.00  0.00  0.00  1.00  0.00
  YS02001926YS02001923    1.00   0.00  0.02  0.00  0.00  0.00  0.98  0.00  0.00  0.00
  YS02001929YS02001926    1.00   0.00  0.04  0.00  0.96  0.00  0.00  0.00  0.87  0.00
  YS02001920YS02001918    1.00   0.00  0.00  0.00  1.00  0.00  0.00  0.00  0.00  0.00
  YS02001629YS02163301    1.00   0.05  0.00  0.00  0.94  0.00  0.00  0.00  0.00  0.00
  YS02001619YS02001622    1.00   0.03  0.00  0.00  0.97  0.00  0.00  0.00  0.00  0.00
  YS02001622YS02001625    1.00   0.04  0.00  0.00  0.96  0.00  0.00  0.00  0.11  0.00
  YS02001625YS02001629    1.00   0.04  0.03  0.00  0.92  0.00  0.01  0.00  0.00  0.00
  YS02163301YS02001633    1.00   0.00  0.05  0.00  0.95  0.00  0.00  0.00  0.00  0.00
  YS02163601YS02164001    1.00   0.00  0.02  0.00  0.98  0.00  0.00  0.00  0.00  0.00
  YS02164001YS02001641    1.00   0.00  0.02  0.00  0.98  0.00  0.00  0.00  0.07  0.00
  YS02001641YS02001644    1.00   0.00  0.00  0.00  1.00  0.00  0.00  0.00  0.00  0.00
  YS02001647YS02001649    1.00   0.00  0.06  0.00  0.94  0.00  0.00  0.00  0.01  0.00
  YS02006553YS02006556    1.00   0.00  0.00  0.00  1.00  0.00  0.00  0.00  0.03  0.00
  YS02006556YS02006558    1.00   0.00  0.00  0.00  1.00  0.00  0.00  0.00  0.00  0.00
  YSB6556YSB1171          1.00   0.01  0.02  0.00  0.97  0.00  0.00  0.00  0.00  0.00
  YS02001907YS02006553    1.00   0.00  0.01  0.00  0.99  0.00  0.00  0.00  0.00  0.00
  YS02006558YS02006561    1.00   0.06  0.00  0.00  0.00  0.93  0.00  0.00  0.66  0.00
  YS02001633YS02163601    1.00   0.00  0.00  0.00  1.00  0.00  0.00  0.00  0.19  0.00
  YS02001644YS02001647    1.00   0.00  0.06  0.00  0.94  0.00  0.00  0.00  0.00  0.00
  YS02001745YS02001748    1.00   0.00  0.00  0.00  0.90  0.00  0.00  0.09  0.05  0.00
  YS02001748YS02001751    1.00   0.00  0.00  0.00  0.97  0.03  0.00  0.00  0.19  0.00
  YS02001751YS02001754    1.00   0.00  0.00  0.00  0.93  0.00  0.00  0.07  0.02  0.00
  YS02001754YS02001757    1.00   0.00  0.00  0.00  1.00  0.00  0.00  0.00  0.24  0.00
  YS02001882YS02001884    1.00   0.05  0.00  0.00  0.95  0.00  0.00  0.00  0.00  0.00
  YS02001884YS02001887    1.00   0.02  0.01  0.00  0.97  0.00  0.00  0.00  0.00  0.00
  YS02001890YS02001895    1.00   0.00  0.05  0.00  0.94  0.00  0.00  0.00  0.00  0.00
  YS02001895YS02001898    1.00   0.06  0.00  0.00  0.93  0.00  0.01  0.00  0.00  0.00
  YS02001898YS02001901    1.00   0.05  0.00  0.00  0.94  0.00  0.00  0.00  0.02  0.00
  YS02001901YS02001904    1.00   0.05  0.00  0.00  0.95  0.00  0.00  0.00  0.00  0.00
  YS02001904YS02001907    1.00   0.00  0.05  0.00  0.95  0.00  0.00  0.00  0.00  0.00
  YS02001887YS02001890    1.00   0.00  0.00  0.00  0.99  0.00  0.01  0.00  0.00  0.00
  YS02001652YS02001649    1.00   0.00  0.00  0.00  1.00  0.00  0.00  0.00  0.22  0.00
  YS02001655YS02001652    1.00   0.00  0.00  0.00  0.93  0.00  0.00  0.07  0.02  0.00
  YS02001658YS02001655    1.00   0.00  0.05  0.00  0.92  0.04  0.00  0.00  0.08  0.00
  YS02001661YS02001658    1.00   0.05  0.00  0.00  0.90  0.05  0.00  0.00  0.05  0.00
  YS02001664YS02001661    1.00   0.03  0.00  0.00  0.91  0.06  0.00  0.00  0.36  0.00
  YSB1154YSB6556          1.00   0.03  0.00  0.00  0.97  0.00  0.00  0.00  0.02  0.00
  YSB1174YSB1171          1.00   0.01  0.01  0.00  0.97  0.00  0.00  0.00  0.00  0.00
  YSB1171HS02004479       1.00   0.01  0.00  0.00  0.98  0.00  0.00  0.00  0.13  0.00
  HS02004881HS02006253    1.00   0.02  0.00  0.00  0.77  0.00  0.00  0.21  0.52  0.00
  YS02001793JiankangQianchi    1.00   0.00  0.00  0.00  0.70  0.30  0.00  0.00  0.53  0.00
  YS02001757CaochengTiaoxuchi    1.00   0.00  0.08  0.00  0.92  0.00  0.00  0.00  0.00  0.00
  WSF200WS02003060        1.00   0.00  0.02  0.00  0.77  0.21  0.00  0.00  0.40  0.00
  1                       1.00   0.00  0.00  0.00  0.00  1.00  0.00  0.00  0.45  0.00
  
  
  *************************
  Conduit Surcharge Summary
  *************************
  
  ----------------------------------------------------------------------------
                                                           Hours        Hours 
                         --------- Hours Full --------   Above Full   Capacity
  Conduit                Both Ends  Upstream  Dnstream   Normal Flow   Limited
  ----------------------------------------------------------------------------
  WS02006229WS02006228        2.59      2.69      2.59      4.34         2.59
  WS02006256WS02006235        5.45      5.46      6.24      3.35         0.01
  WS02006253WS02006251        1.45      1.45      1.48      0.01         0.01
  WS02006252WS02006251        1.56      1.56      2.40      2.17         0.01
  WS02006251WS02006249        1.46      1.46      1.49      1.41         1.12
  WS02006249WS02006248        1.46      1.46      1.49      4.01         0.01
  WS02006248WS02006247        1.48      1.48      1.56      0.01         0.01
  WS02006247WS02006245        1.54      1.57      1.54      4.10         1.53
  WS02006245WS02006243        1.56      1.56      1.62      0.86         0.65
  WS02006243WS02006242        1.65      1.65      1.92      0.01         0.01
  WS02006242WS02006240        1.77      1.77      2.16      2.55         0.01
  WS02006240WS02006239        1.81      1.83      1.90      1.72         1.06
  WS02006239WS02006238        2.03      2.05      2.08      1.83         1.19
  WS02006238WS02006235        2.06      2.06      2.15      0.01         0.01
  WS02006235WS02006234        1.85      1.85      2.03      5.35         0.01
  WS02006234WS02006232        1.94      1.94      2.17      1.23         1.21
  WS02006232WS02006231        1.36      1.36      2.17      1.32         0.01
  WS02006231WS02006230        1.04      1.04      1.39      5.41         0.01
  WS02006230WS02006229        3.27      3.79      3.27      5.69         3.27
  WS02006228WS02006109        2.63      2.85      2.63      5.18         2.63
  WS02006112WS02006115        0.01      0.01      1.34      0.01         0.01
  WS02006111WS02006112        0.01      0.01      4.69      0.01         0.01
  WS02006110WS02006113        0.01      0.01      2.77      0.01         0.01
  WS02006109WS02006110        1.22      1.22      2.86      1.23         0.01
  WS02004405WS02004406        0.01      0.01      0.01      1.26         0.01
  WS02004404WS02004405        0.01      0.01      0.01      5.76         0.01
  WS02003072WS02003073        0.01      0.01      0.01      5.00         0.01
  YS02001759YS02001757        5.54      5.54      5.59      0.01         0.01
  YS02001762YS02001759        5.52      5.52      5.54      0.01         0.01
  YS02001765YS02001762        5.49      5.49      5.52      0.01         0.01
  YS02001770YS02001767        5.47      5.47      5.47      0.01         0.67
  YS02001774YS02001770        5.45      5.45      5.51      0.01         0.01
  YS02001779YS02001774        5.07      5.07      5.51      0.01         0.01
  YS02001649YS02001757        5.53      5.53      5.59      0.01         0.01
  YS02001767YS02001765        5.47      5.47      5.49      0.01         0.01
  YS02001784YS02001785        0.01      0.01      0.01      0.81         0.01
  YS02001788YS02001790        0.01      0.01      0.36      0.01         0.01
  YS02001790YS02001791        0.36      0.36      0.44      0.01         0.01
  YS02001791YS02001793        0.44      0.44      0.89      0.01         0.01
  YS02001629YS02163301        5.46      5.46      5.47      0.01         0.01
  YS02001619YS02001622        4.58      4.58      4.76      0.01         0.01
  YS02001622YS02001625        4.76      4.76      5.41      0.01         0.01
  YS02001625YS02001629        4.59      4.59      5.41      0.01         0.01
  YS02163301YS02001633        5.47      5.47      5.50      0.01         0.01
  YS02163601YS02164001        5.50      5.50      5.52      0.01         0.01
  YS02164001YS02001641        5.50      5.50      5.50      0.01         0.01
  YS02001641YS02001644        5.50      5.50      5.50      0.01         0.95
  YS02001647YS02001649        5.36      5.36      5.53      0.01         0.01
  YS02001907YS02006553        0.84      0.84      1.06      0.01         0.01
  YS02006558YS02006561        0.01      0.01      0.01      0.51         0.01
  YS02001633YS02163601        5.49      5.49      5.52      0.01         0.01
  YS02001644YS02001647        5.36      5.36      5.50      0.01         0.01
  YS02001745YS02001748        0.01      0.01      3.24      0.01         0.01
  YS02001748YS02001751        3.60      3.60      4.78      0.01         0.01
  YS02001751YS02001754        4.78      4.78      5.19      0.01         0.01
  YS02001754YS02001757        5.34      5.34      5.59      0.01         0.01
  YS02001652YS02001649        5.39      5.39      5.53      0.01         0.01
  YS02001655YS02001652        4.83      4.83      5.30      0.01         0.01
  YS02001658YS02001655        3.30      3.30      4.83      0.01         0.01
  YS02001661YS02001658        0.01      0.01      3.30      0.01         0.01
  YS02001664YS02001661        0.01      0.01      0.29      0.01         0.01
  HS02004881HS02006253        0.01      0.01      1.17      0.01         0.01
  YS02001793JiankangQianchi        0.69      0.69      3.15      0.01         0.01
  YS02001757CaochengTiaoxuchi        3.86      3.86      5.59      0.01         0.01
  
  
  ***************
  Pumping Summary
  ***************
  
  ---------------------------------------------------------------------------------------------------------
                                                  Min       Avg       Max     Total     Power    % Time Off
                        Percent   Number of      Flow      Flow      Flow    Volume     Usage    Pump Curve
  Pump                 Utilized   Start-Ups       LPS       LPS       LPS  10^6 ltr     Kw-hr    Low   High
  ---------------------------------------------------------------------------------------------------------
  CC-Pump-1               55.31           1      0.00    189.57    200.00     2.940      4.23    0.0    0.0
  CC-Pump-2               38.30           4      0.00    103.57    200.00     1.440      2.42    0.0    0.0
  JK-Pump-1               48.94           5      0.00    192.07    300.00     2.398     42.94    0.0    0.0
  JK-Pump-2               42.56           5      0.00    264.02    683.00     3.054     56.95    0.0   95.9
  XR-Pump-1               93.61           3      0.00     90.84     95.00     2.394     46.10    0.0    0.0
  XR-Pump-2               93.61           3      0.00     90.84     95.00     2.394     46.10    0.0    0.0
  XR-Pump-3               80.84           5      0.00     87.09     95.00     1.938     36.63    0.0    0.0
  XR-Pump-4               80.84           5      0.00     87.09     95.00     1.938     36.63    0.0    0.0
  
  
  ***************************
  Link Pollutant Load Summary
  ***************************
  
  ------------------------------------------------------------------------------------------
                                 COD            SS            TN            TP         NH4-N
  Link                            kg            kg            kg            kg            kg
  ------------------------------------------------------------------------------------------
  WS02003066WSF200           504.275       872.287        16.162         1.529         8.845
  WS02006287WS02006284       140.608       248.918         6.896         0.769         4.052
  WS02006284WS02006280       141.030       249.601         6.935         0.774         4.077
  WS02006280WS02006229       141.015       249.571         6.935         0.774         4.076
  WS02006229WS02006228       512.070       885.138        15.914         1.481         8.648
  WS02006256WS02006235        88.182       149.855         2.460         0.215         1.312
  WS02006253WS02006251        24.179        44.674         0.616         0.050         0.317
  WS02006252WS02006251       287.238       489.351         6.552         0.489         3.265
  WS02006251WS02006249       305.891       524.583         7.071         0.534         3.538
  WS02006249WS02006248       289.723       497.071         6.694         0.505         3.349
  WS02006248WS02006247       289.558       496.827         6.692         0.505         3.349
  WS02006247WS02006245       289.193       496.222         6.683         0.505         3.344
  WS02006245WS02006243       288.974       495.940         6.674         0.504         3.339
  WS02006243WS02006242       289.274       496.580         6.683         0.505         3.344
  WS02006242WS02006240       289.630       497.353         6.688         0.505         3.346
  WS02006240WS02006239       290.595       499.208         6.704         0.506         3.354
  WS02006239WS02006238       292.040       501.720         6.750         0.510         3.379
  WS02006238WS02006235       292.518       502.371         6.769         0.512         3.390
  WS02006235WS02006234       374.322       641.030         9.065         0.714         4.616
  WS02006234WS02006232       373.909       640.345         9.061         0.714         4.615
  WS02006232WS02006231       373.150       639.066         9.039         0.712         4.603
  WS02006231WS02006230       372.598       638.143         9.030         0.711         4.599
  WS02006230WS02006229       372.859       638.735         9.047         0.714         4.610
  WS02006228WS02006109       511.189       883.693        15.889         1.478         8.635
  WS02006116WS02004401       516.830       893.264        16.547         1.564         9.052
  WS02006115WS02006116       517.999       895.197        16.584         1.567         9.072
  WS02006113WS02006111       517.023       892.876        16.607         1.571         9.090
  WS02006112WS02006115       519.216       897.242        16.633         1.573         9.099
  WS02006111WS02006112       516.557       892.088        16.597         1.570         9.085
  WS02006110WS02006113       517.585       893.824        16.630         1.573         9.103
  WS02006109WS02006110       518.794       895.850        16.681         1.579         9.133
  WS02004411WS02004412       507.932       878.423        16.306         1.544         8.926
  WS02004401WS02004402       515.553       891.128        16.497         1.559         9.024
  WS02004413WS02003067       504.918       873.353        16.181         1.531         8.855
  WS02004412WS02004413       506.594       876.186        16.260         1.540         8.901
  WS02004410WS02004411       508.945       880.109        16.339         1.547         8.944
  WS02004409WS02004410       509.951       881.790        16.375         1.551         8.964
  WS02004407WS02004409       510.712       883.041        16.398         1.553         8.977
  WS02004406WS02004407       510.843       883.227        16.398         1.552         8.976
  WS02004405WS02004406       512.660       886.242        16.486         1.562         9.027
  WS02004404WS02004405       513.698       887.965        16.494         1.561         9.029
  WS02004403WS02004404       513.302       887.380        16.414         1.551         8.977
  WS02004402WS02004403       514.397       889.212        16.457         1.555         9.002
  WS02004139WS02001211      1466.335      2357.634       134.998        16.766        84.052
  WS02004138WS02004139      1464.308      2354.394       134.803        16.742        83.929
  WS02003067WS02003066       504.428       872.549        16.168         1.530         8.848
  WS02001213WS02003059      1511.887      2430.487       139.390        17.315        86.797
  WS02001212WS02001213      1515.646      2436.524       139.738        17.359        87.014
  WS02001211WS02001212      1516.248      2437.488       139.795        17.366        87.050
  WS02003072WS02003073      2120.477      3469.447       165.761        20.124       102.030
  WS02003069WS02003072      2125.433      3477.512       166.171        20.174       102.284
  WS02003060WS02003069      2127.467      3480.839       166.305        20.190       102.365
  WS02003059WS02003060      1511.253      2429.457       139.340        17.309        86.766
  HS02004901HS02004770         4.126         7.679         0.079         0.006         0.037
  HS02004876HS02004881        15.746        29.637         0.415         0.034         0.214
  HS02004870HS02004876        12.019        22.501         0.352         0.030         0.185
  HS02004842HS02004848         2.167         3.900         0.047         0.003         0.021
  HS02004837HS02004842         6.782        11.242         0.515         0.062         0.315
  HS02004830HS02004837        52.170        86.145         4.300         0.528         2.661
  HS02004824HS02004830        52.921        87.347         4.372         0.537         2.706
  HS02004817HS02004824        61.589       103.601         4.577         0.551         2.810
  HS02004770HS02004777        15.759        29.562         0.334         0.022         0.152
  HS02004799HS02004480        61.041       109.538         2.302         0.237         1.288
  HS02004792HS02004799        56.176        99.870         2.260         0.238         1.277
  HS02004788HS02004792        35.162        62.216         1.713         0.188         0.995
  HS02004785HS02004788        17.258        31.976         0.486         0.041         0.248
  HS02004777HS02004785        16.719        31.101         0.438         0.035         0.218
  HS02004480HS02004478        74.988       136.390         2.494         0.248         1.371
  HS02004479HS02004480        18.244        33.694         0.601         0.062         0.338
  HS02004862HS02004870         8.953        16.404         0.291         0.027         0.156
  HS02004848HS02004852         2.862         5.223         0.061         0.004         0.028
  HS02004856HS02004862         5.390        10.199         0.110         0.007         0.051
  HS02004852HS02004856         2.858         5.215         0.061         0.004         0.028
  HS02004802HS02004478        65.926       113.033         4.428         0.525         2.697
  HS02004478WS02006287       140.788       249.219         6.911         0.771         4.061
  HS02004817HS02004807        60.225       101.420         4.448         0.535         2.729
  HS02004807HS02004802        66.582       114.076         4.492         0.533         2.737
  YS02001759YS02001757       162.107       278.547         3.555         0.250         1.765
  YS02001762YS02001759        85.468       147.964         2.059         0.150         1.044
  YS02001765YS02001762        84.795       146.700         2.069         0.152         1.052
  YS02001770YS02001767        82.237       142.518         1.768         0.113         0.861
  YS02001774YS02001770         5.462         9.437         0.138         0.010         0.071
  YS02001779YS02001774         3.932         6.614         0.187         0.020         0.109
  YS02001649YS02001757       215.566       358.897         4.720         0.350         2.294
  YS02001767YS02001765        84.695       146.459         2.081         0.154         1.060
  YS02006561YS02001783       333.942       569.671         8.565         0.711         4.472
  YS02001783YS02001784       333.866       569.563         8.562         0.711         4.470
  YS02001784YS02001785       341.243       581.388         9.275         0.800         4.917
  YS02001788YS02001790       341.926       582.506         9.349         0.809         4.963
  YS02001790YS02001791       343.033       584.306         9.451         0.822         5.027
  YS02001791YS02001793       342.871       584.035         9.444         0.821         5.023
  YS02001910YS02001907       113.669       190.189         4.028         0.375         2.233
  YS02001786YS02001788       341.481       581.782         9.304         0.804         4.935
  YS02001915YS02001910       113.576       189.996         3.981         0.368         2.201
  YS02001918YS02001915        57.649        92.460         2.741         0.299         1.609
  YS02001923YS02001920        37.659        60.494         0.797         0.056         0.392
  YS02001926YS02001923        37.298        59.913         0.758         0.051         0.368
  YS02001929YS02001926        37.035        59.482         0.727         0.047         0.348
  YS02001920YS02001918        57.589        92.386         2.716         0.296         1.592
  YS02001629YS02163301        42.408        70.750         0.935         0.059         0.433
  YS02001619YS02001622        45.511        75.576         1.007         0.063         0.465
  YS02001622YS02001625        44.616        74.238         0.985         0.061         0.455
  YS02001625YS02001629        43.539        72.650         0.959         0.060         0.443
  YS02163301YS02001633        43.057        71.884         0.945         0.060         0.439
  YS02163601YS02164001       118.721       196.678         2.541         0.180         1.224
  YS02164001YS02001641       118.460       196.254         2.523         0.178         1.213
  YS02001641YS02001644       119.312       197.683         2.530         0.178         1.216
  YS02001647YS02001649       170.858       282.697         3.493         0.246         1.672
  YS02006553YS02006556       241.951       411.298         6.546         0.567         3.479
  YS02006556YS02006558       241.899       411.199         6.513         0.562         3.457
  YSB6556YSB1171               9.705        18.077         0.252         0.024         0.136
  YS02001907YS02006553       241.940       411.302         6.544         0.567         3.478
  YS02006558YS02006561       333.871       569.532         8.562         0.711         4.471
  YS02001633YS02163601       119.366       197.649         2.522         0.176         1.209
  YS02001644YS02001647       173.929       287.625         3.552         0.250         1.700
  YS02001745YS02001748        64.132       109.264         1.414         0.087         0.686
  YS02001748YS02001751        71.186       120.771         2.056         0.167         1.086
  YS02001751YS02001754        67.715       114.763         1.992         0.164         1.057
  YS02001754YS02001757        68.667       116.270         2.163         0.187         1.168
  YS02001882YS02001884         0.839         1.365         0.022         0.002         0.012
  YS02001884YS02001887         3.133         5.289         0.074         0.006         0.038
  YS02001890YS02001895       129.386       222.722         2.540         0.193         1.257
  YS02001895YS02001898       129.244       222.519         2.533         0.193         1.253
  YS02001898YS02001901       129.119       222.340         2.531         0.192         1.252
  YS02001901YS02001904       129.153       222.430         2.550         0.195         1.264
  YS02001904YS02001907       129.872       223.621         2.640         0.207         1.321
  YS02001887YS02001890       130.241       224.043         2.602         0.201         1.295
  YS02001652YS02001649        49.754        84.307         1.324         0.110         0.666
  YS02001655YS02001652        50.364        85.290         1.341         0.112         0.674
  YS02001658YS02001655        48.419        82.272         1.056         0.074         0.491
  YS02001661YS02001658        52.011        88.444         1.096         0.075         0.502
  YS02001664YS02001661        61.126       102.660         1.308         0.088         0.597
  YSB1154YSB6556               9.211        17.288         0.192         0.016         0.098
  YSB1174YSB1171               6.658        12.590         0.170         0.016         0.090
  YSB1171HS02004479           18.149        33.551         0.591         0.061         0.333
  HS02004881HS02006253        17.698        33.478         0.441         0.035         0.225
  YS02001793JiankangQianchi       344.316       586.378         9.507         0.828         5.059
  YS02001757CaochengTiaoxuchi       437.640       740.526        10.042         0.747         5.001
  WSF200WS02003060           504.372       872.478        16.182         1.532         8.857
  1                         2125.804      3478.061       166.340        20.198       102.396
  CC-Pump-1                  192.476       327.816         4.393         0.328         2.189
  CC-Pump-2                   94.788       161.575         2.160         0.161         1.076
  JK-Pump-1                   90.584       153.661         2.511         0.218         1.336
  JK-Pump-2                  124.476       214.005         3.296         0.282         1.739
  XR-Pump-1                  411.818       661.995        37.981         4.718        23.651
  XR-Pump-2                  411.818       661.995        37.981         4.718        23.651
  XR-Pump-3                  320.416       515.330        29.428         3.653        18.318
  XR-Pump-4                  320.416       515.330        29.428         3.653        18.318
  

  Analysis begun on:  Sun Jul 11 12:54:15 2021
  Analysis ended on:  Sun Jul 11 12:54:18 2021
  Total elapsed time: 00:00:03