
  EPA STORM WATER MANAGEMENT MODEL - VERSION 5.1 (Build 5.3.0.dev0)
  --------------------------------------------------------------

  WARNING 04: minimum elevation drop used for Conduit WS02004404WS02004405
  WARNING 03: negative offset ignored for Link YS02001904YS02001907
  
  *********************************************************
  NOTE: The summary statistics displayed in this report are
  based on results found at every computational time step,  
  not just on results from each reporting time step.
  *********************************************************
  
  ****************
  Analysis Options
  ****************
  Flow Units ............... LPS
  Process Models:
    Rainfall/Runoff ........ YES
    RDII ................... NO
    Snowmelt ............... NO
    Groundwater ............ NO
    Flow Routing ........... YES
    Ponding Allowed ........ NO
    Water Quality .......... YES
  Infiltration Method ...... HORTON
  Flow Routing Method ...... DYNWAVE
  Surcharge Method ......... EXTRAN
  Starting Date ............ 08/28/2015 08:00:00
  Ending Date .............. 08/28/2015 15:50:00
  Antecedent Dry Days ...... 8.0
  Report Time Step ......... 00:01:00
  Wet Time Step ............ 00:01:00
  Dry Time Step ............ 00:01:00
  Routing Time Step ........ 5.00 sec
  Variable Time Step ....... YES
  Maximum Trials ........... 8
  Number of Threads ........ 4
  Head Tolerance ........... 0.001500 m
  
  
  **************************        Volume         Depth
  Runoff Quantity Continuity     hectare-m            mm
  **************************     ---------       -------
  Total Precipitation ......         3.415         7.477
  Evaporation Loss .........         0.000         0.000
  Infiltration Loss ........         0.687         1.504
  Surface Runoff ...........         2.094         4.584
  Final Storage ............         0.636         1.392
  Continuity Error (%) .....        -0.021
  
  
  **************************           COD            SS            TN            TP         NH4-N
  Runoff Quality Continuity             kg            kg            kg            kg            kg
  **************************    ----------    ----------    ----------    ----------    ----------
  Initial Buildup ..........     41378.656     70582.865      1804.177       168.684      1032.807
  Surface Buildup ..........        17.052        25.700         2.867         0.264         1.689
  Wet Deposition ...........         0.000         0.000         0.000         0.000         0.000
  Sweeping Removal .........         0.000         0.000         0.000         0.000         0.000
  Infiltration Loss ........        44.102        80.176         0.849         0.058         0.401
  BMP Removal ..............         0.000         0.000         0.000         0.000         0.000
  Surface Runoff ...........      1452.111      2561.637        28.761         1.898        13.592
  Remaining Buildup ........     39899.008     67965.895      1777.423       166.991      1020.499
  Continuity Error (%) .....         0.001         0.001         0.001         0.000         0.000
  
  
  **************************        Volume        Volume
  Flow Routing Continuity        hectare-m      10^6 ltr
  **************************     ---------     ---------
  Dry Weather Inflow .......         0.616         6.165
  Wet Weather Inflow .......         2.093        20.926
  Groundwater Inflow .......         0.000         0.000
  RDII Inflow ..............         0.000         0.000
  External Inflow ..........         0.102         1.024
  External Outflow .........         1.857        18.567
  Flooding Loss ............         0.707         7.067
  Evaporation Loss .........         0.000         0.000
  Exfiltration Loss ........         0.000         0.000
  Initial Stored Volume ....         0.076         0.761
  Final Stored Volume ......         0.465         4.646
  Continuity Error (%) .....        -4.868
  
  
  **************************           COD            SS            TN            TP         NH4-N
  Quality Routing Continuity            kg            kg            kg            kg            kg
  **************************    ----------    ----------    ----------    ----------    ----------
  Dry Weather Inflow .......      1541.201      2465.922       147.955        18.494        92.472
  Wet Weather Inflow .......      1451.634      2560.846        28.751         1.898        13.587
  Groundwater Inflow .......         0.000         0.000         0.000         0.000         0.000
  RDII Inflow ..............         0.000         0.000         0.000         0.000         0.000
  External Inflow ..........       183.418       293.469        17.608         2.201        11.005
  External Outflow .........      2242.920      3722.577       166.393        20.052       102.011
  Flooding Loss ............       451.994       789.036         9.936         0.751         4.955
  Exfiltration Loss ........         0.000         0.000         0.000         0.000         0.000
  Mass Reacted .............         0.000         0.000         0.000         0.000         0.000
  Initial Stored Mass ......         0.000         0.000         0.000         0.000         0.000
  Final Stored Mass ........       263.148       444.905         7.200         0.603         3.768
  Continuity Error (%) .....         6.869         6.837         5.550         5.254         5.407
  
  
  *************************
  Highest Continuity Errors
  *************************
  Node HS02004842 (21.08%)
  Node JK-storage (-19.57%)
  Node YS02001884 (13.23%)
  Node YS02001774 (12.39%)
  Node YSB1171 (4.41%)
  
  
  ***************************
  Time-Step Critical Elements
  ***************************
  Link WS02006252WS02006251 (53.21%)
  Link YS02006556YS02006558 (12.17%)
  Link WS02006238WS02006235 (7.80%)
  Link WS02006280WS02006229 (6.27%)
  Link WS02004404WS02004405 (5.71%)
  
  
  ********************************
  Highest Flow Instability Indexes
  ********************************
  Link WS02006113WS02006111 (44)
  Link YS02001619YS02001622 (38)
  Link YS02001629YS02163301 (35)
  Link YS02163301YS02001633 (35)
  Link YS02163601YS02164001 (34)
  
  
  *************************
  Routing Time Step Summary
  *************************
  Minimum Time Step           :     0.50 sec
  Average Time Step           :     1.29 sec
  Maximum Time Step           :     5.00 sec
  Percent in Steady State     :    -0.00
  Average Iterations per Step :     4.70
  Percent Not Converging      :    24.75
  
  
  ***************************
  Subcatchment Runoff Summary
  ***************************
  
  ------------------------------------------------------------------------------------------------------------------------------
                            Total      Total      Total      Total     Imperv       Perv      Total       Total     Peak  Runoff
                           Precip      Runon       Evap      Infil     Runoff     Runoff     Runoff      Runoff   Runoff   Coeff
  Subcatchment                 mm         mm         mm         mm         mm         mm         mm    10^6 ltr      LPS
  ------------------------------------------------------------------------------------------------------------------------------
  sub0                       7.48       0.00       0.00       0.46       6.91       0.06       6.97        0.01     2.34   0.932
  sub1                       7.48       0.00       0.00       0.77       6.57       0.05       6.62        0.04    13.82   0.885
  sub2                       7.48       0.00       0.00       2.72       4.63       0.05       4.68        0.04    12.48   0.625
  sub3                       7.48       0.00       0.00       2.73       4.59       0.03       4.63        0.10    26.20   0.619
  sub4                       7.48       0.00       0.00       0.79       6.42       0.03       6.45        0.13    29.73   0.862
  sub5                       7.48       0.00       0.00       0.48       6.86       0.04       6.90        0.08    24.56   0.923
  sub7                       7.48       0.00       0.00       0.61       6.74       0.06       6.80        0.02     8.29   0.910
  sub8                       7.48       0.00       0.00       0.62       6.73       0.05       6.79        0.04    14.89   0.908
  sub9                       7.48       0.00       0.00       0.62       6.73       0.05       6.79        0.03    11.09   0.907
  sub10                      7.48       0.00       0.00       0.55       6.79       0.05       6.84        0.08    24.34   0.915
  sub11                      7.48       0.00       0.00       0.55       6.81       0.05       6.86        0.08    27.85   0.918
  sub12                      7.48       0.00       0.00       0.89       6.46       0.08       6.54        0.06    22.41   0.875
  sub14                      7.48       0.00       0.00       0.62       6.73       0.05       6.78        0.06    21.73   0.907
  sub15                      7.48       0.00       0.00       2.17       5.17       0.07       5.24        0.09    29.70   0.701
  sub16                      7.48       0.00       0.00       2.36       4.97       0.10       5.08        0.05    20.05   0.679
  sub17                      7.48       0.00       0.00       2.29       5.04       0.10       5.14        0.04    16.33   0.688
  sub22                      7.48       0.00       0.00       3.14       4.22       0.08       4.30        0.27    95.18   0.575
  sub23                      7.48       0.00       0.00       2.68       4.67       0.08       4.75        0.23    80.64   0.636
  sub60                      7.48       0.00       0.00       0.89       5.04       0.01       5.04        1.53   153.67   0.674
  sub61                      7.48       0.00       0.00       1.26       5.23       0.01       5.23        1.61   193.14   0.700
  sub62                      7.48       0.00       0.00       0.59       5.65       0.01       5.66        1.74   197.22   0.757
  sub63                      7.48       0.00       0.00       2.16       4.60       0.01       4.61        1.40   180.34   0.617
  sub64                      7.48       0.00       0.00       1.12       4.82       0.01       4.83        1.47   145.96   0.646
  sub65                      7.48       0.00       0.00       0.97       4.90       0.01       4.90        1.51   148.09   0.656
  sub66                      7.48       0.00       0.00       2.16       4.17       0.01       4.17        1.28   133.87   0.558
  sub67                      7.48       0.00       0.00       0.59       6.06       0.01       6.07        1.87   253.26   0.812
  sub68                      7.48       0.00       0.00       1.04       5.52       0.01       5.53        1.70   213.55   0.740
  sub69                      7.48       0.00       0.00       1.11       5.81       0.02       5.83        1.36   211.81   0.779
  sub70                      7.48       5.95       0.00       4.49       7.54       0.08       7.62        1.74   179.74   0.567
  sub71                      7.48       0.00       0.00       0.59       5.46       0.01       5.47        1.29   137.58   0.732
  sub72                      7.48       0.00       0.00       0.52       4.13       0.00       4.14        0.84    66.94   0.553
  1                          7.48       7.41       0.00       1.33       8.05       1.64       9.69        2.28   177.84   0.651
  2                          7.48       0.00       0.00       2.93       1.74       0.62       2.36        0.94   130.52   0.315
  
  
  ****************************
  Subcatchment Washoff Summary
  ****************************
  
  ------------------------------------------------------------------------------------------
                                 COD            SS            TN            TP         NH4-N
  Subcatchment                    kg            kg            kg            kg            kg
  ------------------------------------------------------------------------------------------
  sub0                         1.317         2.530         0.022         0.002         0.011
  sub1                         5.321        10.352         0.099         0.007         0.047
  sub2                         3.050         5.713         0.066         0.004         0.030
  sub3                         7.387        13.652         0.157         0.010         0.072
  sub4                        11.619        22.464         0.233         0.014         0.111
  sub5                        12.311        23.656         0.215         0.016         0.104
  sub7                         2.804         5.565         0.052         0.003         0.025
  sub8                         4.188         8.475         0.083         0.005         0.040
  sub9                         3.568         7.123         0.069         0.004         0.033
  sub10                       10.174        19.810         0.184         0.013         0.089
  sub11                       10.058        19.862         0.186         0.013         0.089
  sub12                        8.516        16.554         0.151         0.011         0.073
  sub14                        7.603        15.034         0.143         0.009         0.069
  sub15                        9.065        17.101         0.175         0.013         0.081
  sub16                        5.815        10.989         0.110         0.008         0.051
  sub17                        5.340        10.001         0.098         0.008         0.046
  sub22                       26.958        49.807         0.514         0.038         0.238
  sub23                       16.311        31.250         0.352         0.023         0.160
  sub60                       93.150       163.193         1.929         0.113         0.922
  sub61                      117.673       205.854         2.239         0.148         1.074
  sub62                      123.481       219.826         2.485         0.151         1.189
  sub63                       87.759       151.509         1.832         0.125         0.841
  sub64                      112.878       190.402         2.123         0.150         1.008
  sub65                      115.667       195.939         2.193         0.152         1.043
  sub66                       66.950       114.094         1.447         0.091         0.670
  sub67                      186.213       329.841         3.349         0.240         1.613
  sub68                      131.588       233.025         2.581         0.168         1.227
  sub69                      122.560       220.836         2.330         0.159         1.108
  sub70                      188.640       338.735         3.868         0.261         1.794
  sub71                       81.456       146.096         1.746         0.097         0.833
  sub72                       56.811        93.979         1.095         0.072         0.525
  1                          111.422       201.643         2.350         0.159         1.075
  2                           15.657        26.297         0.484         0.029         0.203
  ------------------------------------------------------------------------------------------
  System                    1763.312      3121.207        34.959         2.318        16.494
  
  
  ******************
  Node Depth Summary
  ******************
  
  ---------------------------------------------------------------------------------
                                 Average  Maximum  Maximum  Time of Max    Reported
                                   Depth    Depth      HGL   Occurrence   Max Depth
  Node                 Type       Meters   Meters   Meters  days hr:min      Meters
  ---------------------------------------------------------------------------------
  WS02001211           JUNCTION     0.76     0.80     5.64     0  02:35        0.80
  WS02001212           JUNCTION     0.47     0.51     5.58     0  02:35        0.51
  WS02001213           JUNCTION     0.71     0.77     5.53     0  02:33        0.77
  WS02003069           JUNCTION     0.50     0.60     5.18     0  02:32        0.60
  WS02003072           JUNCTION     0.56     0.65     5.02     0  02:33        0.65
  WS02003073           JUNCTION     0.34     0.40     4.47     0  02:34        0.40
  WS02003060           JUNCTION     0.45     0.53     5.46     0  02:31        0.53
  WS02003066           JUNCTION     0.24     0.31     5.86     0  02:30        0.31
  WS02003059           JUNCTION     0.76     0.82     5.51     0  02:33        0.82
  WS02003067           JUNCTION     0.60     0.72     6.04     0  02:30        0.72
  WS02004401           JUNCTION     0.71     0.88     6.88     0  02:26        0.88
  WS02004402           JUNCTION     0.74     0.91     6.87     0  02:27        0.91
  WS02004403           JUNCTION     0.76     0.92     6.85     0  02:27        0.92
  WS02004404           JUNCTION     0.83     0.99     6.84     0  02:27        0.99
  WS02004406           JUNCTION     0.84     0.98     6.81     0  02:27        0.98
  WS02004409           JUNCTION     0.52     0.69     6.46     0  02:29        0.69
  WS02004410           JUNCTION     0.54     0.71     6.43     0  02:29        0.71
  WS02004411           JUNCTION     0.55     0.71     6.39     0  02:29        0.71
  WS02004412           JUNCTION     0.57     0.72     6.36     0  02:30        0.72
  WS02004413           JUNCTION     0.73     0.88     6.35     0  02:30        0.88
  WS02004405           JUNCTION     0.83     0.98     6.83     0  02:27        0.98
  WS02006109           JUNCTION     0.80     1.01     7.63     0  02:24        1.01
  WS02006110           JUNCTION     0.78     0.95     7.53     0  02:25        0.95
  WS02006111           JUNCTION     0.23     0.30     7.00     0  02:24        0.30
  WS02006112           JUNCTION     0.88     1.12     7.00     0  02:23        1.10
  WS02006113           JUNCTION     0.36     0.47     7.36     0  02:24        0.47
  WS02006115           JUNCTION     0.60     0.79     6.93     0  02:26        0.79
  WS02006116           JUNCTION     0.68     0.87     6.91     0  02:26        0.86
  WS02006230           JUNCTION     0.80     1.14     7.88     0  03:34        1.13
  WS02006231           JUNCTION     0.54     0.89     8.01     0  03:34        0.87
  WS02006232           JUNCTION     0.69     1.08     8.12     0  03:34        1.08
  WS02006234           JUNCTION     0.63     1.10     8.25     0  06:39        1.09
  WS02006235           JUNCTION     0.67     1.18     8.34     0  06:39        1.17
  WS02006238           JUNCTION     0.69     1.21     8.35     0  06:39        1.20
  WS02006240           JUNCTION     0.60     1.15     8.45     0  06:39        1.14
  WS02006242           JUNCTION     0.66     1.24     8.50     0  06:39        1.22
  WS02006243           JUNCTION     0.54     1.14     8.56     0  06:39        1.12
  WS02006245           JUNCTION     0.52     1.12     8.61     0  06:39        1.11
  WS02006247           JUNCTION     0.53     1.14     8.64     0  03:49        1.13
  WS02006248           JUNCTION     0.48     1.08     8.67     0  06:39        1.08
  WS02006249           JUNCTION     0.50     1.09     8.69     0  03:33        1.09
  WS02006239           JUNCTION     0.65     1.19     8.40     0  06:39        1.18
  WS02006251           JUNCTION     0.49     1.31     8.98     0  05:09        1.13
  WS02006252           JUNCTION     0.32     0.87     9.11     0  05:09        0.68
  WS02006253           JUNCTION     0.52     1.38     9.02     0  05:09        1.16
  WS02006256           JUNCTION     1.67     2.35     9.28     0  00:00        2.35
  WS02004138           JUNCTION     0.18     0.20     7.45     0  00:00        0.19
  WS02004139           JUNCTION     0.71     0.74     5.65     0  02:35        0.74
  WS02004407           JUNCTION     0.23     0.31     6.62     0  02:27        0.31
  WS02006228           JUNCTION     0.80     1.06     7.71     0  02:24        1.05
  WS02006229           JUNCTION     0.78     1.06     7.75     0  02:24        1.06
  WS02006280           JUNCTION     0.06     0.19     8.46     0  02:11        0.19
  WS02006284           JUNCTION     0.36     0.55     8.95     0  02:11        0.55
  WS02006287           JUNCTION     0.09     0.29     9.24     0  02:11        0.29
  WSF200               JUNCTION     0.23     0.32     5.55     0  02:29        0.32
  HS02004901           JUNCTION     0.12     0.29    10.11     0  02:09        0.29
  HS02004881           JUNCTION     0.01     0.04     9.06     0  02:11        0.04
  HS02004876           JUNCTION     0.04     0.12     9.15     0  02:11        0.12
  HS02004870           JUNCTION     0.01     0.06     9.35     0  02:11        0.06
  HS02004862           JUNCTION     0.02     0.07     9.46     0  02:12        0.07
  HS02004856           JUNCTION     0.08     0.12     9.55     0  02:12        0.12
  HS02004852           JUNCTION     0.01     0.04     9.56     0  02:12        0.04
  HS02004848           JUNCTION     0.01     0.04     9.64     0  02:11        0.04
  HS02004842           JUNCTION     0.33     0.37     9.64     0  02:11        0.37
  HS02004837           JUNCTION     0.03     0.06     9.64     0  02:11        0.06
  HS02004830           JUNCTION     0.04     0.08     9.55     0  02:11        0.08
  HS02004824           JUNCTION     0.02     0.06     9.46     0  02:14        0.06
  HS02004817           JUNCTION     0.43     0.59     9.44     0  02:12        0.59
  HS02004807           JUNCTION     0.12     0.27     9.44     0  02:12        0.27
  HS02004802           JUNCTION     0.16     0.30     9.43     0  02:11        0.30
  HS02004799           JUNCTION     0.11     0.34     9.55     0  02:10        0.34
  HS02004792           JUNCTION     0.03     0.14     9.67     0  02:09        0.14
  HS02004788           JUNCTION     0.02     0.11    10.00     0  02:10        0.11
  HS02004785           JUNCTION     0.04     0.18    10.08     0  02:10        0.18
  HS02004777           JUNCTION     0.14     0.31    10.11     0  02:09        0.31
  HS02004770           JUNCTION     0.11     0.28    10.11     0  02:09        0.28
  HS02004480           JUNCTION     0.07     0.27     9.51     0  02:10        0.27
  HS02004479           JUNCTION     0.11     0.31     9.51     0  02:10        0.31
  HS02004478           JUNCTION     0.06     0.18     9.41     0  02:11        0.18
  YS02001745           JUNCTION     0.66     0.87     8.39     0  03:21        0.87
  YS02001748           JUNCTION     1.05     1.43     8.51     0  02:54        1.30
  YS02001751           JUNCTION     1.23     1.94     8.82     0  02:39        1.51
  YS02001754           JUNCTION     1.48     1.80     8.41     0  02:39        1.77
  YS02001762           JUNCTION     1.68     2.02     8.42     0  03:26        1.99
  YS02001765           JUNCTION     1.63     1.97     8.42     0  03:26        1.94
  YS02001767           JUNCTION     1.59     1.92     8.41     0  03:27        1.89
  YS02001770           JUNCTION     1.59     1.90     8.40     0  02:43        1.88
  YS02001774           JUNCTION     1.66     1.98     8.40     0  02:43        1.95
  YS02001779           JUNCTION     1.41     1.68     8.37     0  02:32        1.68
  YS02001882           JUNCTION     0.36     0.65     7.37     0  02:29        0.65
  YS02001884           JUNCTION     0.46     0.75     7.37     0  02:29        0.75
  YS02001759           JUNCTION     1.71     2.06     8.42     0  03:26        2.02
  YS02001887           JUNCTION     0.54     0.83     7.37     0  02:30        0.83
  YS02001890           JUNCTION     0.57     0.85     7.36     0  02:30        0.85
  YS02001898           JUNCTION     0.34     0.61     7.34     0  02:28        0.60
  YS02001901           JUNCTION     0.45     0.73     7.34     0  02:28        0.73
  YS02001904           JUNCTION     0.43     0.71     7.34     0  02:28        0.71
  YS02001907           JUNCTION     0.76     1.06     7.34     0  02:27        1.05
  YS02001910           JUNCTION     0.55     0.83     7.34     0  02:28        0.83
  YS02001915           JUNCTION     0.35     0.62     7.34     0  02:28        0.61
  YS02001918           JUNCTION     0.12     0.27     7.34     0  02:29        0.27
  YS02001619           JUNCTION     1.20     1.61     8.54     0  02:45        1.46
  YS02001629           JUNCTION     1.54     1.85     8.40     0  02:50        1.83
  YS02001641           JUNCTION     1.65     1.94     8.38     0  03:02        1.93
  YS02001644           JUNCTION     1.65     1.92     8.35     0  02:59        1.92
  YS02001652           JUNCTION     1.49     2.16     8.76     0  02:36        1.82
  YS02001655           JUNCTION     1.26     2.20     9.05     0  02:32        1.61
  YS02001920           JUNCTION     0.22     0.34     7.35     0  02:29        0.34
  YS02001923           JUNCTION     0.09     0.12     7.38     0  03:01        0.12
  YS02001926           JUNCTION     0.18     0.23     7.68     0  03:01        0.23
  YS02001929           JUNCTION     0.09     0.12     7.82     0  03:01        0.12
  YS02001658           JUNCTION     1.00     2.30     9.44     0  02:44        1.39
  YS02001661           JUNCTION     0.76     1.70     9.10     0  03:45        1.07
  YS02001664           JUNCTION     0.32     0.57     8.49     0  03:09        0.56
  YS02001622           JUNCTION     1.22     1.62     8.52     0  02:45        1.48
  YS02001633           JUNCTION     1.63     1.96     8.42     0  03:01        1.92
  YS02001649           JUNCTION     1.69     2.05     8.44     0  02:32        2.00
  YS02001757           JUNCTION     1.81     2.17     8.43     0  03:27        2.13
  YS02001895           JUNCTION     0.33     0.60     7.35     0  02:28        0.60
  YS02001625           JUNCTION     1.50     1.78     8.38     0  02:50        1.78
  YS02163301           JUNCTION     1.57     1.90     8.41     0  03:01        1.86
  YS02163601           JUNCTION     1.69     2.00     8.40     0  03:01        1.97
  YS02164001           JUNCTION     1.63     1.94     8.40     0  03:01        1.91
  YS02001647           JUNCTION     1.48     1.80     8.41     0  03:04        1.76
  YSB1154              JUNCTION     0.25     0.46     9.52     0  02:10        0.46
  YSB6556              JUNCTION     0.14     0.35     9.52     0  02:10        0.35
  YSB1174              JUNCTION     0.20     0.41     9.52     0  02:10        0.41
  YSB1171              JUNCTION     0.40     0.61     9.52     0  02:10        0.61
  YS02006553           JUNCTION     0.77     1.06     7.34     0  02:28        1.05
  YS02006561           JUNCTION     0.18     0.37     7.03     0  02:36        0.36
  YS02006556           JUNCTION     0.74     1.03     7.34     0  02:28        1.02
  YS02006558           JUNCTION     0.78     1.08     7.34     0  02:27        1.05
  YS02001783           JUNCTION     0.35     0.99     7.13     0  03:13        0.86
  YS02001784           JUNCTION     0.38     1.04     7.11     0  03:13        0.87
  YS02001786           JUNCTION     0.33     1.03     7.06     0  03:13        0.83
  YS02001788           JUNCTION     0.27     1.03     7.00     0  03:13        0.82
  YS02001790           JUNCTION     0.36     1.42     7.06     0  03:11        1.10
  YS02001791           JUNCTION     0.31     1.58     7.05     0  03:11        1.20
  YS02001793           JUNCTION     0.43     2.03     6.87     0  04:27        1.78
  WSC                  OUTFALL      0.34     0.40     1.07     0  02:34        0.40
  JK-storage           STORAGE      2.29     5.80     6.60     0  03:12        5.80
  CC-storage           STORAGE      1.07     1.39     8.39     0  03:21        1.39
  XR-storage           STORAGE      4.79     7.15     5.15     0  04:04        7.15
  
  
  *******************
  Node Inflow Summary
  *******************
  
  -------------------------------------------------------------------------------------------------
                                  Maximum  Maximum                  Lateral       Total        Flow
                                  Lateral    Total  Time of Max      Inflow      Inflow     Balance
                                   Inflow   Inflow   Occurrence      Volume      Volume       Error
  Node                 Type           LPS      LPS  days hr:min    10^6 ltr    10^6 ltr     Percent
  -------------------------------------------------------------------------------------------------
  WS02001211           JUNCTION      7.35   389.60     0  04:18       0.207         9.8       0.419
  WS02001212           JUNCTION      0.00   391.76     0  04:18           0        9.76       0.227
  WS02001213           JUNCTION      0.00   393.84     0  05:50           0        9.73       0.326
  WS02003069           JUNCTION      0.32   976.77     0  02:32     0.00902        18.7       0.207
  WS02003072           JUNCTION      0.00   976.79     0  02:33           0        18.6       0.243
  WS02003073           JUNCTION      1.82   978.68     0  02:33      0.0514        18.6       0.283
  WS02003060           JUNCTION     16.53   976.41     0  02:31       0.466        18.7       0.195
  WS02003066           JUNCTION      0.00   576.70     0  02:30           0        8.56       0.062
  WS02003059           JUNCTION      0.00   397.30     0  05:51           0        9.71       0.428
  WS02003067           JUNCTION      0.00   576.67     0  02:30           0        8.57       0.124
  WS02004401           JUNCTION      0.00   580.28     0  02:26           0        8.84       0.280
  WS02004402           JUNCTION      0.00   580.05     0  02:26           0        8.82       0.260
  WS02004403           JUNCTION      0.00   579.39     0  02:27           0        8.79       0.233
  WS02004404           JUNCTION      0.16   579.47     0  02:27     0.00457        8.78       0.172
  WS02004406           JUNCTION      0.00   579.50     0  02:27           0        8.74       0.419
  WS02004409           JUNCTION      0.00   578.78     0  02:27           0         8.7       0.235
  WS02004410           JUNCTION      0.00   577.76     0  02:28           0        8.68       0.260
  WS02004411           JUNCTION      0.00   576.99     0  02:29           0        8.65       0.262
  WS02004412           JUNCTION      0.00   576.79     0  02:29           0        8.63       0.276
  WS02004413           JUNCTION      0.00   576.90     0  02:30           0        8.61       0.400
  WS02004405           JUNCTION      0.04   579.50     0  02:27     0.00107        8.76       0.255
  WS02006109           JUNCTION      1.23   572.22     0  02:24      0.0347        8.94       0.214
  WS02006110           JUNCTION      0.00   572.17     0  02:24           0        8.92       0.240
  WS02006111           JUNCTION      0.00   596.58     0  02:24           0        8.88       0.062
  WS02006112           JUNCTION     16.33   588.69     0  02:24      0.0441        8.92       0.384
  WS02006113           JUNCTION      0.00   572.62     0  02:24           0         8.9       0.138
  WS02006115           JUNCTION      0.00   595.21     0  02:24           0        8.89       0.282
  WS02006116           JUNCTION      0.00   582.01     0  02:25           0        8.86       0.242
  WS02006230           JUNCTION     10.28   534.39     0  06:40        0.29        7.59       0.201
  WS02006231           JUNCTION      0.00   523.53     0  06:40           0        7.31       0.216
  WS02006232           JUNCTION      0.00   523.23     0  06:40           0        7.32       0.252
  WS02006234           JUNCTION      0.00   522.88     0  06:40           0        7.33       0.154
  WS02006235           JUNCTION      0.00   528.52     0  06:52           0        7.41       0.162
  WS02006238           JUNCTION      0.00   419.27     0  07:30           0        4.41       0.127
  WS02006240           JUNCTION      0.00   417.50     0  07:30           0        4.38       0.388
  WS02006242           JUNCTION      0.00   417.31     0  07:30           0        4.37       0.430
  WS02006243           JUNCTION      0.00   417.03     0  07:30           0        4.36       0.231
  WS02006245           JUNCTION      0.00   416.67     0  07:30           0        4.36       0.369
  WS02006247           JUNCTION      0.00   416.40     0  07:30           0        4.37       0.284
  WS02006248           JUNCTION      0.00   416.69     0  07:30           0        4.38       0.179
  WS02006249           JUNCTION      0.00   428.96     0  05:09           0        4.66       0.383
  WS02006239           JUNCTION      0.00   418.60     0  07:30           0        4.39       0.277
  WS02006251           JUNCTION      0.08   411.16     0  05:09     0.00217        4.74       0.368
  WS02006252           JUNCTION      0.00   400.00     0  03:50           0        4.44       0.015
  WS02006253           JUNCTION      2.34   122.86     0  05:30     0.00564       0.315       4.358
  WS02006256           JUNCTION      0.00   983.00     0  02:30           0        6.61      -0.006
  WS02004138           JUNCTION      0.00   380.00     0  00:00           0        9.63       0.064
  WS02004139           JUNCTION      0.32   395.85     0  00:00     0.00905        9.64       0.479
  WS02004407           JUNCTION      0.00   579.05     0  02:27           0        8.71       0.104
  WS02006228           JUNCTION      0.00   571.14     0  02:24           0        8.92       0.178
  WS02006229           JUNCTION      0.00   570.47     0  02:24           0        8.94       0.184
  WS02006280           JUNCTION      0.00   381.59     0  02:12           0        1.38       0.005
  WS02006284           JUNCTION      0.10   381.53     0  02:11      0.0027        1.38       0.089
  WS02006287           JUNCTION      0.00   381.39     0  02:11           0        1.37       0.052
  WSF200               JUNCTION      0.00   576.75     0  02:31           0        8.56       0.060
  HS02004901           JUNCTION     20.05    20.05     0  02:06      0.0531      0.0533       3.410
  HS02004881           JUNCTION      8.29    76.32     0  02:11      0.0229       0.245       0.061
  HS02004876           JUNCTION     13.82    68.66     0  02:11       0.044       0.223       0.241
  HS02004870           JUNCTION     14.89    55.12     0  02:11      0.0434       0.179       0.058
  HS02004862           JUNCTION     12.68    41.04     0  02:11      0.0492       0.136       0.124
  HS02004856           JUNCTION     11.09    28.46     0  02:11      0.0326      0.0881       1.660
  HS02004852           JUNCTION      0.00    17.97     0  02:11           0      0.0555       0.094
  HS02004848           JUNCTION     26.20    26.20     0  02:13       0.104       0.104       0.041
  HS02004842           JUNCTION      0.00     9.04     0  02:21           0      0.0617      26.704
  HS02004837           JUNCTION     30.69    38.32     0  02:10       0.254       0.303       0.268
  HS02004830           JUNCTION      0.15    38.44     0  02:11     0.00423       0.294       0.422
  HS02004824           JUNCTION     29.78    68.00     0  02:13       0.136       0.428       0.125
  HS02004817           JUNCTION      0.60    68.59     0  02:14      0.0169       0.445       3.895
  HS02004807           JUNCTION     27.85    94.45     0  02:12      0.0797       0.508       0.839
  HS02004802           JUNCTION      0.00    95.04     0  02:13           0       0.503       0.812
  HS02004799           JUNCTION     21.73   244.09     0  02:09      0.0645       0.755       0.318
  HS02004792           JUNCTION     95.46   222.68     0  02:09       0.279        0.69       0.058
  HS02004788           JUNCTION     31.37   129.30     0  02:10       0.137       0.412       0.094
  HS02004785           JUNCTION      0.15    98.30     0  02:09     0.00423       0.277       0.173
  HS02004777           JUNCTION      0.03    98.64     0  02:08    0.000846       0.277       1.905
  HS02004770           JUNCTION     80.64    99.64     0  02:07       0.227       0.278       1.124
  HS02004480           JUNCTION      0.00   288.45     0  02:10           0       0.887       0.091
  HS02004479           JUNCTION      0.00    45.09     0  02:11           0       0.144       0.508
  HS02004478           JUNCTION      0.00   381.37     0  02:11           0        1.38       0.044
  YS02001745           JUNCTION    153.68   206.49     0  02:42        1.53        1.53       0.356
  YS02001748           JUNCTION      0.04   350.88     0  02:42     0.00127        1.53       1.162
  YS02001751           JUNCTION      0.01   311.90     0  02:29     0.00031        1.51       1.492
  YS02001754           JUNCTION      0.26   228.97     0  02:33     0.00733        1.49       1.649
  YS02001762           JUNCTION      0.00   245.34     0  02:37           0        1.55       1.362
  YS02001765           JUNCTION      0.00   239.50     0  02:37           0        1.55       1.571
  YS02001767           JUNCTION      0.54   233.90     0  02:37      0.0151        1.57       2.310
  YS02001770           JUNCTION    197.38   221.13     0  02:37        1.74        1.76       1.771
  YS02001774           JUNCTION      0.00   176.44     0  03:26           0       0.201      14.147
  YS02001779           JUNCTION      0.01   176.66     0  03:26    0.000141       0.166       9.945
  YS02001882           JUNCTION      0.00    10.63     0  02:55           0      0.0128      17.903
  YS02001884           JUNCTION      0.00    17.39     0  02:03           0      0.0412      15.247
  YS02001759           JUNCTION    193.18   441.64     0  02:37        1.61        3.12       0.723
  YS02001887           JUNCTION    253.71   263.70     0  02:30        1.89        1.91       0.408
  YS02001890           JUNCTION      0.00   261.40     0  02:30           0        1.87       0.455
  YS02001898           JUNCTION      0.00   270.06     0  02:30           0        1.86       0.145
  YS02001901           JUNCTION      0.00   267.83     0  02:30           0        1.86       0.332
  YS02001904           JUNCTION      0.00   267.56     0  02:22           0        1.85       0.307
  YS02001907           JUNCTION      0.00   472.22     0  02:40           0        4.05       0.569
  YS02001910           JUNCTION      0.00   223.23     0  02:56           0         2.2       0.497
  YS02001915           JUNCTION    137.60   216.27     0  02:56        1.29        2.21       0.238
  YS02001918           JUNCTION      0.00    77.55     0  02:56           0        0.92       0.167
  YS02001619           JUNCTION    133.87   133.87     0  02:40        1.28        1.28       0.906
  YS02001629           JUNCTION      0.00   226.57     0  02:32           0        1.21       2.253
  YS02001641           JUNCTION      0.00   329.18     0  02:41           0        2.62       0.797
  YS02001644           JUNCTION    146.00   739.13     0  03:24        1.47        4.93       0.527
  YS02001652           JUNCTION      0.00   259.89     0  02:42           0        1.37       1.726
  YS02001655           JUNCTION      0.15   422.05     0  02:32     0.00434         1.4       1.577
  YS02001920           JUNCTION      2.87    69.86     0  03:01      0.0809       0.922       0.272
  YS02001923           JUNCTION      0.04    67.00     0  03:01     0.00106       0.841       0.050
  YS02001926           JUNCTION      0.05    66.98     0  03:01     0.00147       0.843       0.337
  YS02001929           JUNCTION     66.94    66.94     0  03:01       0.842       0.842       0.048
  YS02001658           JUNCTION      0.00   601.70     0  02:42           0        1.46       1.039
  YS02001661           JUNCTION      0.00   522.50     0  03:04           0        1.91      -0.725
  YS02001664           JUNCTION    180.34   366.38     0  03:04         1.4        1.86       0.110
  YS02001622           JUNCTION      0.00   175.31     0  02:32           0        1.27       2.493
  YS02001633           JUNCTION    148.29   329.17     0  02:39        1.51        2.68       1.198
  YS02001649           JUNCTION      0.00   661.94     0  02:36           0        3.97       0.936
  YS02001757           JUNCTION      0.00  1168.32     0  02:42           0        7.63       1.212
  YS02001895           JUNCTION      0.00   267.20     0  02:30           0        1.86       0.230
  YS02001625           JUNCTION      0.00   226.51     0  02:32           0        1.24       3.242
  YS02163301           JUNCTION      0.00   181.25     0  02:39           0         1.2       1.993
  YS02163601           JUNCTION      0.11   329.11     0  02:39      0.0031        2.63       1.130
  YS02164001           JUNCTION      0.00   328.96     0  02:41           0        2.61       0.741
  YS02001647           JUNCTION      0.00   475.40     0  02:41           0        3.01       0.915
  YSB1154              JUNCTION     24.56    24.56     0  02:09      0.0782      0.0793       1.852
  YSB6556              JUNCTION      0.00    24.51     0  02:10           0      0.0802       1.580
  YSB1174              JUNCTION     22.41    22.41     0  02:06      0.0572      0.0579       2.267
  YSB1171              JUNCTION      0.00    44.96     0  02:10           0       0.144       4.609
  YS02006553           JUNCTION      0.00   464.44     0  02:31           0        4.03       0.369
  YS02006561           JUNCTION      0.00   708.51     0  02:28           0        5.71       0.023
  YS02006556           JUNCTION      0.00   465.08     0  02:31           0        4.04       0.265
  YS02006558           JUNCTION    214.43   703.69     0  02:29        1.72        5.74       0.067
  YS02001783           JUNCTION      0.00   679.12     0  02:31           0        5.71       0.032
  YS02001784           JUNCTION      1.06   690.71     0  02:29      0.0299        5.74       0.051
  YS02001786           JUNCTION      0.06   700.45     0  02:29     0.00159        5.73       0.050
  YS02001788           JUNCTION      0.07   725.93     0  02:29       0.002        5.73       0.029
  YS02001790           JUNCTION      0.15   753.36     0  02:28     0.00437        5.74       0.028
  YS02001791           JUNCTION      0.00   792.30     0  02:29           0        5.74      -0.012
  YS02001793           JUNCTION      0.00   840.02     0  02:30           0        5.74      -0.056
  WSC                  OUTFALL       0.00   978.73     0  02:34           0        18.6       0.000
  JK-storage           STORAGE       0.00   904.57     0  02:17           0         5.9     -16.367
  CC-storage           STORAGE       0.00  1168.26     0  02:42           0        7.02       0.744
  XR-storage           STORAGE     482.07   482.07     0  02:45        8.86        9.46      -1.817
  
  
  **********************
  Node Surcharge Summary
  **********************
  
  Surcharging occurs when water rises above the top of the highest conduit.
  ---------------------------------------------------------------------
                                               Max. Height   Min. Depth
                                   Hours       Above Crown    Below Rim
  Node                 Type      Surcharged         Meters       Meters
  ---------------------------------------------------------------------
  WS02006109           JUNCTION        3.48          0.190        1.630
  WS02006110           JUNCTION        1.77          0.038        1.812
  WS02006112           JUNCTION        2.12          0.120        1.560
  WS02006230           JUNCTION        1.29          0.059        1.511
  WS02006231           JUNCTION        1.69          0.175        1.355
  WS02006232           JUNCTION        3.36          0.384        1.096
  WS02006234           JUNCTION        2.31          0.375        0.865
  WS02006235           JUNCTION        2.79          0.470        0.820
  WS02006238           JUNCTION        2.95          0.487        0.943
  WS02006240           JUNCTION        2.33          0.444        0.946
  WS02006242           JUNCTION        2.53          0.505        0.315
  WS02006243           JUNCTION        2.24          0.431        0.339
  WS02006245           JUNCTION        2.18          0.410        0.440
  WS02006247           JUNCTION        2.23          0.426        0.334
  WS02006248           JUNCTION        2.04          0.360        0.020
  WS02006249           JUNCTION        2.12          0.390        0.000
  WS02006239           JUNCTION        2.37          0.454        0.836
  WS02006251           JUNCTION        1.22          0.284        0.896
  WS02006252           JUNCTION        2.77          0.468        0.632
  WS02006253           JUNCTION        1.24          0.336        2.144
  WS02006256           JUNCTION        6.49          2.050        0.000
  WS02006228           JUNCTION        3.41          0.233        1.967
  YS02001748           JUNCTION        4.05          0.349        0.841
  YS02001751           JUNCTION        5.18          0.938        0.262
  YS02001754           JUNCTION        5.44          0.755        0.395
  YS02001762           JUNCTION        5.63          1.018        0.132
  YS02001765           JUNCTION        5.61          0.969        0.131
  YS02001767           JUNCTION        5.60          0.921        0.109
  YS02001770           JUNCTION        5.59          0.874        0.046
  YS02001774           JUNCTION        5.62          0.978        0.072
  YS02001779           JUNCTION        5.43          0.680        0.000
  YS02001759           JUNCTION        5.64          1.057        0.153
  YS02001907           JUNCTION        0.84          0.046        0.904
  YS02001619           JUNCTION        5.06          0.610        0.000
  YS02001629           JUNCTION        5.09          0.470        0.000
  YS02001641           JUNCTION        5.61          0.944        0.156
  YS02001644           JUNCTION        5.61          0.920        0.000
  YS02001652           JUNCTION        5.47          1.130        0.000
  YS02001655           JUNCTION        5.22          1.200        0.000
  YS02001658           JUNCTION        4.14          1.300        0.000
  YS02001661           JUNCTION        0.05          0.627        0.763
  YS02001622           JUNCTION        5.22          0.620        0.000
  YS02001633           JUNCTION        5.60          0.942        0.118
  YS02001649           JUNCTION        5.63          1.050        0.000
  YS02001757           JUNCTION        5.67          1.166        0.044
  YS02001625           JUNCTION        5.58          0.780        0.000
  YS02163301           JUNCTION        5.59          0.896        0.134
  YS02163601           JUNCTION        5.63          1.005        0.075
  YS02164001           JUNCTION        5.61          0.939        0.161
  YS02001647           JUNCTION        5.52          0.797        0.103
  YS02006553           JUNCTION        0.93          0.057        1.133
  YS02001783           JUNCTION        0.04          0.189        1.411
  YS02001784           JUNCTION        0.06          0.242        1.248
  YS02001786           JUNCTION        0.03          0.230        1.200
  YS02001788           JUNCTION        0.01          0.227        1.253
  YS02001790           JUNCTION        0.77          0.618        0.539
  YS02001791           JUNCTION        0.86          0.779        1.141
  YS02001793           JUNCTION        1.17          1.034        1.566
  
  
  *********************
  Node Flooding Summary
  *********************
  
  Flooding refers to all water that overflows a node, whether it ponds or not.
  --------------------------------------------------------------------------
                                                             Total   Maximum
                                 Maximum   Time of Max       Flood    Ponded
                        Hours       Rate    Occurrence      Volume     Depth
  Node                 Flooded       LPS   days hr:min    10^6 ltr    Meters
  --------------------------------------------------------------------------
  WS02006249              1.17    108.40      0  05:09       0.267     0.000
  WS02006256              2.84    789.84      0  03:34       3.544     0.000
  YS02001779              1.42    176.55      0  03:26       0.145     0.000
  YS02001619              0.01     21.14      0  02:45       0.000     0.000
  YS02001629              0.01     22.28      0  02:50       0.000     0.000
  YS02001644              2.92    738.94      0  03:24       2.752     0.000
  YS02001652              0.01     24.37      0  02:36       0.000     0.000
  YS02001655              0.01    319.32      0  02:36       0.001     0.000
  YS02001658              0.01    225.48      0  02:45       0.000     0.000
  YS02001622              0.01     12.95      0  02:45       0.000     0.000
  YS02001649              0.01     26.45      0  03:05       0.000     0.000
  YS02001625              0.05     19.13      0  03:00       0.001     0.000
  JK-storage              0.35    570.22      0  03:14       0.356     0.000
  
  
  **********************
  Storage Volume Summary
  **********************
  
  --------------------------------------------------------------------------------------------------
                         Average     Avg  Evap Exfil       Maximum     Max    Time of Max    Maximum
                          Volume    Pcnt  Pcnt  Pcnt        Volume    Pcnt     Occurrence    Outflow
  Storage Unit           1000 m3    Full  Loss  Loss       1000 m3    Full    days hr:min        LPS
  --------------------------------------------------------------------------------------------------
  JK-storage               0.115      39     0     0         0.291     100       0  03:12     983.00
  CC-storage               2.979      19     0     0         3.869      25       0  03:21     400.00
  XR-storage               0.575      62     0     0         0.858      93       0  04:04     380.00
  
  
  ***********************
  Outfall Loading Summary
  ***********************
  
  ---------------------------------------------------------------------------------------------------------------------------------
                         Flow       Avg       Max       Total         Total         Total         Total         Total         Total
                         Freq      Flow      Flow      Volume           COD            SS            TN            TP         NH4-N
  Outfall Node           Pcnt       LPS       LPS    10^6 ltr            kg            kg            kg            kg            kg
  ---------------------------------------------------------------------------------------------------------------------------------
  WSC                   99.98    739.12    978.73      18.567      2242.959      3722.633       166.398        20.053       102.014
  ---------------------------------------------------------------------------------------------------------------------------------
  System                99.98    739.12    978.73      18.567      2242.959      3722.633       166.398        20.053       102.014
  
  
  ********************
  Link Flow Summary
  ********************
  
  -----------------------------------------------------------------------------
                                 Maximum  Time of Max   Maximum    Max/    Max/
                                  |Flow|   Occurrence   |Veloc|    Full    Full
  Link                 Type          LPS  days hr:min     m/sec    Flow   Depth
  -----------------------------------------------------------------------------
  WS02003066WSF200     CONDUIT    576.75     0  02:31      2.79    0.10    0.24
  WS02006287WS02006284 CONDUIT    381.43     0  02:11      1.99    0.18    0.29
  WS02006284WS02006280 CONDUIT    381.59     0  02:12      2.23    0.16    0.27
  WS02006280WS02006229 CONDUIT    381.60     0  02:12      3.59    0.08    0.19
  WS02006229WS02006228 CONDUIT    571.14     0  02:24      1.14    1.89    1.00
  WS02006256WS02006235 CONDUIT    288.92     0  00:00      4.23    3.06    1.00
  WS02006253WS02006251 CONDUIT    121.94     0  05:30      0.61    0.37    1.00
  WS02006252WS02006251 CONDUIT    401.09     0  06:42      3.19    1.47    1.00
  WS02006251WS02006249 CONDUIT    428.96     0  05:09      1.13    1.24    1.00
  WS02006249WS02006248 CONDUIT    416.69     0  07:30      1.19    2.28    1.00
  WS02006248WS02006247 CONDUIT    416.40     0  07:30      1.17    0.91    1.00
  WS02006247WS02006245 CONDUIT    416.67     0  07:30      1.14    3.30    1.00
  WS02006245WS02006243 CONDUIT    417.03     0  07:30      1.19    1.23    1.00
  WS02006243WS02006242 CONDUIT    417.31     0  07:30      1.08    0.89    1.00
  WS02006242WS02006240 CONDUIT    417.50     0  07:30      1.08    1.66    1.00
  WS02006240WS02006239 CONDUIT    418.60     0  07:30      1.09    1.32    1.00
  WS02006239WS02006238 CONDUIT    419.27     0  07:30      1.09    1.34    1.00
  WS02006238WS02006235 CONDUIT    419.95     0  07:30      1.45    0.94    1.00
  WS02006235WS02006234 CONDUIT    522.88     0  06:40      1.36    5.52    1.00
  WS02006234WS02006232 CONDUIT    523.23     0  06:40      1.39    1.06    1.00
  WS02006232WS02006231 CONDUIT    523.53     0  06:40      1.36    1.10    1.00
  WS02006231WS02006230 CONDUIT    524.11     0  06:40      1.36    7.95    1.00
  WS02006230WS02006229 CONDUIT    537.03     0  06:40      1.40   11.95    1.00
  WS02006228WS02006109 CONDUIT    570.99     0  02:24      1.14    2.49    1.00
  WS02006116WS02004401 CONDUIT    580.28     0  02:26      1.00    0.80    0.88
  WS02006115WS02006116 CONDUIT    582.01     0  02:25      1.02    0.75    0.80
  WS02006113WS02006111 CONDUIT    596.58     0  02:24      2.52    0.72    0.48
  WS02006112WS02006115 CONDUIT    595.21     0  02:24      0.82    0.35    0.89
  WS02006111WS02006112 CONDUIT    579.20     0  02:24      1.60    0.28    0.68
  WS02006110WS02006113 CONDUIT    572.62     0  02:24      1.34    0.52    0.79
  WS02006109WS02006110 CONDUIT    572.17     0  02:24      1.14    1.10    1.00
  WS02004411WS02004412 CONDUIT    576.79     0  02:29      0.96    0.82    0.72
  WS02004401WS02004402 CONDUIT    580.05     0  02:26      1.00    0.70    0.90
  WS02004413WS02003067 CONDUIT    576.67     0  02:30      1.16    0.25    0.61
  WS02004412WS02004413 CONDUIT    576.90     0  02:30      0.86    0.39    0.80
  WS02004410WS02004411 CONDUIT    576.99     0  02:29      0.97    0.79    0.71
  WS02004409WS02004410 CONDUIT    577.76     0  02:28      1.01    0.75    0.70
  WS02004407WS02004409 CONDUIT    578.78     0  02:27      1.53    0.21    0.50
  WS02004406WS02004407 CONDUIT    579.05     0  02:27      1.09    0.26    0.64
  WS02004405WS02004406 CONDUIT    579.50     0  02:27      1.10    1.14    0.98
  WS02004404WS02004405 CONDUIT    579.46     0  02:27      1.15    5.68    0.99
  WS02004403WS02004404 CONDUIT    579.31     0  02:27      0.98    0.42    0.96
  WS02004402WS02004403 CONDUIT    579.39     0  02:27      1.02    0.83    0.92
  WS02004139WS02001211 CONDUIT    382.25     0  04:18      0.90    0.48    0.60
  WS02004138WS02004139 CONDUIT    395.52     0  00:00      3.64    0.08    0.44
  WS02003067WS02003066 CONDUIT    576.70     0  02:30      1.26    0.18    0.43
  WS02001213WS02003059 CONDUIT    397.30     0  05:51      0.89    0.66    0.78
  WS02001212WS02001213 CONDUIT    393.84     0  05:50      1.32    0.61    0.48
  WS02001211WS02001212 CONDUIT    391.76     0  04:18      0.78    0.30    0.66
  WS02003072WS02003073 CONDUIT    976.86     0  02:33      1.75    2.11    0.49
  WS02003069WS02003072 CONDUIT    976.79     0  02:33      1.64    0.47    0.52
  WS02003060WS02003069 CONDUIT    976.45     0  02:32      1.88    0.38    0.47
  WS02003059WS02003060 CONDUIT    402.26     0  05:50      0.95    0.26    0.67
  HS02004901HS02004770 CONDUIT     19.28     0  02:08      0.07    0.07    0.41
  HS02004876HS02004881 CONDUIT     68.65     0  02:12      0.90    0.73    0.11
  HS02004870HS02004876 CONDUIT     55.08     0  02:11      0.62    0.04    0.13
  HS02004842HS02004848 CONDUIT      9.04     0  02:21      0.04    0.01    0.30
  HS02004837HS02004842 CONDUIT      9.42     0  02:22      0.42    0.01    0.31
  HS02004830HS02004837 CONDUIT     38.29     0  02:11      0.54    0.04    0.10
  HS02004824HS02004830 CONDUIT     38.43     0  02:12      0.57    0.05    0.10
  HS02004817HS02004824 CONDUIT     67.99     0  02:14      0.21    0.03    0.46
  HS02004770HS02004777 CONDUIT     98.61     0  02:08      0.34    0.18    0.42
  HS02004799HS02004480 CONDUIT    243.78     0  02:10      0.81    0.31    0.43
  HS02004792HS02004799 CONDUIT    222.57     0  02:09      0.92    0.14    0.35
  HS02004788HS02004792 CONDUIT    129.19     0  02:10      1.04    0.09    0.18
  HS02004785HS02004788 CONDUIT     98.21     0  02:10      0.69    0.74    0.20
  HS02004777HS02004785 CONDUIT     98.15     0  02:09      0.40    0.12    0.35
  HS02004480HS02004478 CONDUIT    288.46     0  02:10      1.24    1.21    0.33
  HS02004479HS02004480 CONDUIT     45.40     0  02:12      0.18    0.04    0.42
  HS02004862HS02004870 CONDUIT     40.99     0  02:12      0.62    0.04    0.09
  HS02004848HS02004852 CONDUIT     17.97     0  02:11      0.42    0.02    0.06
  HS02004856HS02004862 CONDUIT     28.41     0  02:12      0.46    0.03    0.09
  HS02004852HS02004856 CONDUIT     17.91     0  02:12      0.22    0.02    0.12
  HS02004802HS02004478 CONDUIT     95.81     0  02:14      0.41    0.08    0.35
  HS02004478WS02006287 CONDUIT    381.39     0  02:11      1.69    0.11    0.25
  HS02004817HS02004807 CONDUIT     69.61     0  02:15      0.16    0.04    0.61
  HS02004807HS02004802 CONDUIT     95.04     0  02:13      0.35    0.18    0.40
  YS02001759YS02001757 CONDUIT    440.52     0  02:37      0.56    0.31    1.00
  YS02001762YS02001759 CONDUIT    249.13     0  02:37      0.32    0.29    1.00
  YS02001765YS02001762 CONDUIT    245.34     0  02:37      0.31    0.23    1.00
  YS02001770YS02001767 CONDUIT    233.36     0  02:37      0.30    0.92    1.00
  YS02001774YS02001770 CONDUIT    176.44     0  03:26      0.22    0.11    1.00
  YS02001779YS02001774 CONDUIT    176.65     0  03:26      0.22    0.09    1.00
  YS02001649YS02001757 CONDUIT    666.86     0  02:36      0.85    0.40    1.00
  YS02001767YS02001765 CONDUIT    239.50     0  02:37      0.30    0.30    1.00
  YS02006561YS02001783 CONDUIT    679.12     0  02:31      2.11    0.35    0.71
  YS02001783YS02001784 CONDUIT    689.65     0  02:29      1.59    0.95    1.00
  YS02001784YS02001785 CONDUIT    700.39     0  02:29      1.72    1.63    1.00
  YS02001788YS02001790 CONDUIT    753.21     0  02:28      2.25    0.56    1.00
  YS02001790YS02001791 CONDUIT    792.30     0  02:29      2.75    0.86    1.00
  YS02001791YS02001793 CONDUIT    840.02     0  02:30      5.54    0.36    1.00
  YS02001910YS02001907 CONDUIT    222.97     0  02:55      0.49    0.13    0.92
  YS02001786YS02001788 CONDUIT    725.86     0  02:29      2.17    1.40    1.00
  YS02001915YS02001910 CONDUIT    223.23     0  02:56      0.46    0.11    0.72
  YS02001918YS02001915 CONDUIT     83.63     0  02:56      0.44    0.05    0.44
  YS02001923YS02001920 CONDUIT     66.99     0  03:01      0.58    0.03    0.23
  YS02001926YS02001923 CONDUIT     66.96     0  03:01      0.66    0.10    0.19
  YS02001929YS02001926 CONDUIT     66.93     0  03:01      0.71    0.03    0.18
  YS02001920YS02001918 CONDUIT     77.55     0  02:56      0.58    0.08    0.30
  YS02001629YS02163301 CONDUIT    181.25     0  02:39      0.23    0.22    1.00
  YS02001619YS02001622 CONDUIT    175.31     0  02:32      0.75    0.26    1.00
  YS02001622YS02001625 CONDUIT    226.51     0  02:32      0.32    0.12    1.00
  YS02001625YS02001629 CONDUIT    226.57     0  02:32      0.29    0.11    1.00
  YS02163301YS02001633 CONDUIT    181.16     0  02:39      0.23    0.17    1.00
  YS02163601YS02164001 CONDUIT    328.96     0  02:41      0.42    0.29    1.00
  YS02164001YS02001641 CONDUIT    329.18     0  02:41      0.42    0.45    1.00
  YS02001641YS02001644 CONDUIT    329.72     0  02:41      0.42    1.07    1.00
  YS02001647YS02001649 CONDUIT    489.34     0  02:36      0.62    0.26    1.00
  YS02006553YS02006556 CONDUIT    465.08     0  02:31      0.60    0.40    0.99
  YS02006556YS02006558 CONDUIT    489.54     0  02:29      0.62    0.39    1.00
  YSB6556YSB1171       CONDUIT     24.81     0  02:12      0.09    0.03    0.69
  YS02001907YS02006553 CONDUIT    464.44     0  02:31      0.52    0.55    1.00
  YS02006558YS02006561 CONDUIT    708.51     0  02:28      3.21    1.57    0.76
  YS02001633YS02163601 CONDUIT    329.00     0  02:39      0.42    0.35    1.00
  YS02001644YS02001647 CONDUIT    475.40     0  02:41      0.61    0.28    1.00
  YS02001745YS02001748 CONDUIT    350.83     0  02:42      1.64    0.14    0.93
  YS02001748YS02001751 CONDUIT    311.89     0  02:29      1.22    0.16    1.00
  YS02001751YS02001754 CONDUIT    228.71     0  02:33      0.91    0.11    1.00
  YS02001754YS02001757 CONDUIT    224.73     0  02:33      0.33    0.09    1.00
  YS02001882YS02001884 CONDUIT     15.03     0  02:56      0.08    0.02    0.67
  YS02001884YS02001887 CONDUIT     19.97     0  02:56      0.05    0.03    0.76
  YS02001890YS02001895 CONDUIT    267.20     0  02:30      0.44    0.12    0.73
  YS02001895YS02001898 CONDUIT    270.06     0  02:30      0.58    0.47    0.59
  YS02001898YS02001901 CONDUIT    267.83     0  02:30      0.49    0.17    0.67
  YS02001901YS02001904 CONDUIT    267.56     0  02:22      0.46    0.41    0.72
  YS02001904YS02001907 CONDUIT    269.98     0  02:29      0.38    0.09    0.85
  YS02001887YS02001890 CONDUIT    261.40     0  02:30      0.39    0.45    0.82
  YS02001652YS02001649 CONDUIT    260.62     0  02:42      0.40    0.13    1.00
  YS02001655YS02001652 CONDUIT    259.89     0  02:42      0.94    0.13    1.00
  YS02001658YS02001655 CONDUIT    421.90     0  02:32      1.41    0.18    1.00
  YS02001661YS02001658 CONDUIT    601.70     0  02:42      1.72    0.24    1.00
  YS02001664YS02001661 CONDUIT    522.50     0  03:04      1.54    0.16    0.72
  YSB1154YSB6556       CONDUIT     24.51     0  02:10      0.19    0.04    0.58
  YSB1174YSB1171       CONDUIT     21.38     0  02:07      0.08    0.03    0.69
  YSB1171HS02004479    CONDUIT     45.09     0  02:11      0.54    0.03    0.55
  HS02004881HS02006253 CONDUIT     76.32     0  02:11      2.16    0.01    0.51
  YS02001793JiankangQianchi CONDUIT    904.57     0  02:17     17.37    0.07    1.00
  YS02001757CaochengTiaoxuchi CONDUIT   1168.26     0  02:42      2.39    0.51    1.00
  WSF200WS02003060     CONDUIT    576.84     0  02:31      1.75    0.13    0.35
  1                    CONDUIT    978.73     0  02:34      3.31    0.34    0.40
  CC-Pump-1            PUMP       200.00     0  03:30              1.00
  CC-Pump-2            PUMP       200.00     0  03:50              1.00
  JK-Pump-1            PUMP       300.00     0  00:00              1.00
  JK-Pump-2            PUMP       683.00     0  02:30              1.00
  XR-Pump-1            PUMP        95.00     0  00:00              1.00
  XR-Pump-2            PUMP        95.00     0  00:00              1.00
  XR-Pump-3            PUMP        95.00     0  00:00              1.00
  XR-Pump-4            PUMP        95.00     0  00:00              1.00
  
  
  ***************************
  Flow Classification Summary
  ***************************
  
  -------------------------------------------------------------------------------------
                      Adjusted    ---------- Fraction of Time in Flow Class ---------- 
                       /Actual         Up    Down  Sub   Sup   Up    Down  Norm  Inlet 
  Conduit               Length    Dry  Dry   Dry   Crit  Crit  Crit  Crit  Ltd   Ctrl  
  -------------------------------------------------------------------------------------
  WS02003066WSF200        1.00   0.01  0.02  0.00  0.00  0.97  0.00  0.00  0.59  0.00
  WS02006287WS02006284    1.00   0.03  0.02  0.00  0.66  0.29  0.00  0.00  0.75  0.00
  WS02006284WS02006280    1.00   0.04  0.00  0.00  0.00  0.00  0.00  0.96  0.00  0.00
  WS02006280WS02006229    1.00   0.04  0.00  0.00  0.00  0.00  0.00  0.96  0.00  0.00
  WS02006229WS02006228    1.00   0.00  0.00  0.00  1.00  0.00  0.00  0.00  0.00  0.00
  WS02006256WS02006235    1.00   0.00  0.00  0.00  1.00  0.00  0.00  0.00  0.00  0.00
  WS02006253WS02006251    1.00   0.02  0.02  0.00  0.96  0.00  0.00  0.00  0.00  0.00
  WS02006252WS02006251    1.00   0.27  0.00  0.00  0.10  0.00  0.63  0.00  0.00  0.00
  WS02006251WS02006249    1.00   0.00  0.00  0.00  1.00  0.00  0.00  0.00  0.28  0.00
  WS02006249WS02006248    1.00   0.00  0.01  0.00  0.87  0.00  0.12  0.00  0.00  0.00
  WS02006248WS02006247    1.00   0.01  0.00  0.00  0.99  0.00  0.00  0.00  0.18  0.00
  WS02006247WS02006245    1.00   0.01  0.00  0.00  0.98  0.00  0.00  0.01  0.00  0.00
  WS02006245WS02006243    1.00   0.00  0.00  0.00  0.93  0.00  0.00  0.07  0.00  0.00
  WS02006243WS02006242    1.00   0.00  0.00  0.00  1.00  0.00  0.00  0.00  0.29  0.00
  WS02006242WS02006240    1.00   0.00  0.00  0.00  1.00  0.00  0.00  0.00  0.00  0.00
  WS02006240WS02006239    1.00   0.00  0.00  0.00  0.93  0.00  0.00  0.07  0.01  0.00
  WS02006239WS02006238    1.00   0.00  0.00  0.00  1.00  0.00  0.00  0.00  0.18  0.00
  WS02006238WS02006235    1.00   0.00  0.00  0.00  1.00  0.00  0.00  0.00  0.00  0.00
  WS02006235WS02006234    1.00   0.00  0.00  0.00  0.95  0.00  0.05  0.00  0.00  0.00
  WS02006234WS02006232    1.00   0.00  0.00  0.00  1.00  0.00  0.00  0.00  0.14  0.00
  WS02006232WS02006231    1.00   0.00  0.00  0.00  1.00  0.00  0.00  0.00  0.00  0.00
  WS02006231WS02006230    1.00   0.00  0.00  0.00  0.75  0.00  0.25  0.00  0.00  0.00
  WS02006230WS02006229    1.00   0.00  0.00  0.00  1.00  0.00  0.00  0.00  0.00  0.00
  WS02006228WS02006109    1.00   0.00  0.00  0.00  1.00  0.00  0.00  0.00  0.00  0.00
  WS02006116WS02004401    1.00   0.01  0.00  0.00  0.99  0.00  0.00  0.00  0.00  0.00
  WS02006115WS02006116    1.00   0.01  0.00  0.00  0.99  0.00  0.00  0.00  0.00  0.00
  WS02006113WS02006111    1.00   0.01  0.00  0.00  0.00  0.99  0.00  0.00  0.17  0.00
  WS02006112WS02006115    1.00   0.01  0.00  0.00  0.99  0.00  0.00  0.00  0.00  0.00
  WS02006111WS02006112    1.00   0.01  0.00  0.00  0.99  0.00  0.00  0.00  0.98  0.00
  WS02006110WS02006113    1.00   0.00  0.00  0.00  0.99  0.00  0.00  0.00  0.00  0.00
  WS02006109WS02006110    1.00   0.00  0.00  0.00  0.99  0.00  0.00  0.00  0.00  0.00
  WS02004411WS02004412    1.00   0.02  0.00  0.00  0.98  0.00  0.00  0.00  0.00  0.00
  WS02004401WS02004402    1.00   0.01  0.00  0.00  0.99  0.00  0.00  0.00  0.00  0.00
  WS02004413WS02003067    1.00   0.02  0.01  0.00  0.00  0.00  0.97  0.00  0.00  0.00
  WS02004412WS02004413    1.00   0.02  0.00  0.00  0.98  0.00  0.00  0.00  0.01  0.00
  WS02004410WS02004411    1.00   0.02  0.00  0.00  0.98  0.00  0.00  0.00  0.00  0.00
  WS02004409WS02004410    1.00   0.02  0.00  0.00  0.98  0.00  0.00  0.00  0.02  0.00
  WS02004407WS02004409    1.00   0.02  0.00  0.00  0.98  0.00  0.00  0.00  0.95  0.00
  WS02004406WS02004407    1.00   0.00  0.02  0.00  0.98  0.00  0.00  0.00  0.00  0.00
  WS02004405WS02004406    1.00   0.00  0.00  0.00  1.00  0.00  0.00  0.00  0.00  0.00
  WS02004404WS02004405    1.00   0.00  0.00  0.00  1.00  0.00  0.00  0.00  0.00  0.00
  WS02004403WS02004404    1.00   0.00  0.01  0.00  0.99  0.00  0.00  0.00  0.00  0.00
  WS02004402WS02004403    1.00   0.01  0.00  0.00  0.99  0.00  0.00  0.00  0.00  0.00
  WS02004139WS02001211    1.00   0.00  0.00  0.00  1.00  0.00  0.00  0.00  0.00  0.00
  WS02004138WS02004139    1.00   0.00  0.00  0.00  1.00  0.00  0.00  0.00  1.00  0.00
  WS02003067WS02003066    1.00   0.03  0.00  0.00  0.97  0.00  0.00  0.00  0.00  0.00
  WS02001213WS02003059    1.00   0.00  0.00  0.00  1.00  0.00  0.00  0.00  0.00  0.00
  WS02001212WS02001213    1.00   0.00  0.00  0.00  0.90  0.00  0.10  0.00  0.00  0.00
  WS02001211WS02001212    1.00   0.00  0.00  0.00  1.00  0.00  0.00  0.00  0.00  0.00
  WS02003072WS02003073    1.00   0.00  0.00  0.00  0.00  0.00  0.00  1.00  0.00  0.00
  WS02003069WS02003072    1.00   0.00  0.00  0.00  1.00  0.00  0.00  0.00  0.15  0.00
  WS02003060WS02003069    1.00   0.00  0.00  0.00  0.99  0.01  0.00  0.00  0.10  0.00
  WS02003059WS02003060    1.00   0.00  0.00  0.00  1.00  0.00  0.00  0.00  0.01  0.00
  HS02004901HS02004770    1.00   0.04  0.00  0.00  0.96  0.00  0.00  0.00  0.01  0.00
  HS02004876HS02004881    1.00   0.01  0.00  0.00  0.95  0.04  0.00  0.00  0.00  0.00
  HS02004870HS02004876    1.00   0.00  0.00  0.00  0.99  0.00  0.00  0.00  0.95  0.00
  HS02004842HS02004848    1.00   0.00  0.04  0.00  0.96  0.00  0.00  0.00  0.63  0.00
  HS02004837HS02004842    1.00   0.00  0.00  0.00  1.00  0.00  0.00  0.00  0.11  0.00
  HS02004830HS02004837    1.00   0.00  0.00  0.00  1.00  0.00  0.00  0.00  0.99  0.00
  HS02004824HS02004830    1.00   0.00  0.00  0.00  1.00  0.00  0.00  0.00  0.00  0.00
  HS02004817HS02004824    1.00   0.00  0.00  0.00  1.00  0.00  0.00  0.00  1.00  0.00
  HS02004770HS02004777    1.00   0.00  0.04  0.00  0.96  0.00  0.00  0.00  0.05  0.00
  HS02004799HS02004480    1.00   0.00  0.01  0.00  0.94  0.00  0.04  0.00  0.00  0.00
  HS02004792HS02004799    1.00   0.00  0.00  0.00  0.99  0.01  0.00  0.00  0.98  0.00
  HS02004788HS02004792    1.00   0.00  0.00  0.00  1.00  0.00  0.00  0.00  0.98  0.00
  HS02004785HS02004788    1.00   0.00  0.00  0.00  1.00  0.00  0.00  0.00  0.00  0.00
  HS02004777HS02004785    1.00   0.00  0.00  0.00  1.00  0.00  0.00  0.00  0.17  0.00
  HS02004480HS02004478    1.00   0.04  0.00  0.00  0.73  0.00  0.00  0.23  0.00  0.00
  HS02004479HS02004480    1.00   0.02  0.00  0.00  0.98  0.00  0.00  0.00  0.14  0.00
  HS02004862HS02004870    1.00   0.00  0.00  0.00  1.00  0.00  0.00  0.00  0.05  0.00
  HS02004848HS02004852    1.00   0.04  0.00  0.00  0.96  0.00  0.00  0.00  0.72  0.00
  HS02004856HS02004862    1.00   0.00  0.06  0.00  0.94  0.00  0.00  0.00  0.78  0.00
  HS02004852HS02004856    1.00   0.04  0.01  0.00  0.95  0.00  0.00  0.00  0.83  0.00
  HS02004802HS02004478    1.00   0.04  0.00  0.00  0.95  0.00  0.00  0.00  0.02  0.00
  HS02004478WS02006287    1.00   0.05  0.00  0.00  0.81  0.13  0.00  0.00  0.72  0.00
  HS02004817HS02004807    1.00   0.00  0.04  0.00  0.96  0.00  0.00  0.00  0.00  0.00
  HS02004807HS02004802    1.00   0.04  0.00  0.00  0.95  0.00  0.00  0.00  0.01  0.00
  YS02001759YS02001757    1.00   0.00  0.00  0.00  1.00  0.00  0.00  0.00  0.18  0.00
  YS02001762YS02001759    1.00   0.00  0.00  0.00  1.00  0.00  0.00  0.00  0.04  0.00
  YS02001765YS02001762    1.00   0.00  0.00  0.00  1.00  0.00  0.00  0.00  0.19  0.00
  YS02001770YS02001767    1.00   0.00  0.00  0.00  1.00  0.00  0.00  0.00  0.00  0.00
  YS02001774YS02001770    1.00   0.00  0.05  0.00  0.95  0.00  0.00  0.00  0.05  0.00
  YS02001779YS02001774    1.00   0.00  0.00  0.00  1.00  0.00  0.00  0.00  0.23  0.00
  YS02001649YS02001757    1.00   0.00  0.00  0.00  1.00  0.00  0.00  0.00  0.18  0.00
  YS02001767YS02001765    1.00   0.00  0.00  0.00  1.00  0.00  0.00  0.00  0.00  0.00
  YS02006561YS02001783    1.00   0.07  0.00  0.00  0.13  0.80  0.00  0.00  0.59  0.00
  YS02001783YS02001784    1.00   0.00  0.07  0.00  0.93  0.00  0.00  0.00  0.01  0.00
  YS02001784YS02001785    1.00   0.00  0.00  0.00  1.00  0.00  0.00  0.00  0.22  0.00
  YS02001788YS02001790    1.00   0.00  0.00  0.00  0.25  0.75  0.00  0.00  0.61  0.00
  YS02001790YS02001791    1.00   0.00  0.00  0.00  0.21  0.79  0.00  0.00  0.56  0.00
  YS02001791YS02001793    1.00   0.00  0.00  0.00  0.28  0.72  0.00  0.00  0.04  0.00
  YS02001910YS02001907    1.00   0.00  0.00  0.00  0.99  0.00  0.00  0.01  0.13  0.00
  YS02001786YS02001788    1.00   0.00  0.00  0.00  0.21  0.79  0.00  0.00  0.00  0.00
  YS02001915YS02001910    1.00   0.00  0.00  0.00  0.99  0.01  0.00  0.00  0.21  0.00
  YS02001918YS02001915    1.00   0.00  0.00  0.00  0.99  0.01  0.00  0.00  0.64  0.00
  YS02001923YS02001920    1.00   0.00  0.00  0.00  1.00  0.00  0.00  0.00  1.00  0.00
  YS02001926YS02001923    1.00   0.00  0.03  0.00  0.00  0.00  0.97  0.00  0.00  0.00
  YS02001929YS02001926    1.00   0.00  0.04  0.00  0.96  0.00  0.00  0.00  0.87  0.00
  YS02001920YS02001918    1.00   0.00  0.00  0.00  1.00  0.00  0.00  0.00  0.00  0.00
  YS02001629YS02163301    1.00   0.06  0.00  0.00  0.94  0.00  0.00  0.00  0.00  0.00
  YS02001619YS02001622    1.00   0.04  0.00  0.00  0.96  0.00  0.00  0.00  0.00  0.00
  YS02001622YS02001625    1.00   0.04  0.00  0.00  0.96  0.00  0.00  0.00  0.10  0.00
  YS02001625YS02001629    1.00   0.04  0.03  0.00  0.91  0.00  0.02  0.00  0.00  0.00
  YS02163301YS02001633    1.00   0.00  0.06  0.00  0.94  0.00  0.00  0.00  0.00  0.00
  YS02163601YS02164001    1.00   0.00  0.03  0.00  0.97  0.00  0.00  0.00  0.00  0.00
  YS02164001YS02001641    1.00   0.00  0.02  0.00  0.97  0.00  0.00  0.00  0.07  0.00
  YS02001641YS02001644    1.00   0.00  0.00  0.00  1.00  0.00  0.00  0.00  0.00  0.00
  YS02001647YS02001649    1.00   0.00  0.07  0.00  0.93  0.00  0.00  0.00  0.01  0.00
  YS02006553YS02006556    1.00   0.01  0.00  0.00  0.99  0.00  0.00  0.00  0.03  0.00
  YS02006556YS02006558    1.00   0.00  0.00  0.00  1.00  0.00  0.00  0.00  0.00  0.00
  YSB6556YSB1171          1.00   0.02  0.02  0.00  0.96  0.00  0.00  0.00  0.00  0.00
  YS02001907YS02006553    1.00   0.00  0.01  0.00  0.99  0.00  0.00  0.00  0.00  0.00
  YS02006558YS02006561    1.00   0.07  0.00  0.00  0.00  0.93  0.00  0.00  0.58  0.00
  YS02001633YS02163601    1.00   0.00  0.00  0.00  1.00  0.00  0.00  0.00  0.18  0.00
  YS02001644YS02001647    1.00   0.00  0.07  0.00  0.93  0.00  0.00  0.00  0.00  0.00
  YS02001745YS02001748    1.00   0.00  0.00  0.00  0.90  0.00  0.00  0.10  0.03  0.00
  YS02001748YS02001751    1.00   0.00  0.00  0.00  0.97  0.03  0.00  0.00  0.16  0.00
  YS02001751YS02001754    1.00   0.00  0.00  0.00  0.92  0.00  0.00  0.08  0.02  0.00
  YS02001754YS02001757    1.00   0.00  0.00  0.00  1.00  0.00  0.00  0.00  0.23  0.00
  YS02001882YS02001884    1.00   0.05  0.00  0.00  0.94  0.00  0.00  0.00  0.00  0.00
  YS02001884YS02001887    1.00   0.02  0.01  0.00  0.96  0.00  0.00  0.00  0.00  0.00
  YS02001890YS02001895    1.00   0.00  0.06  0.00  0.94  0.00  0.00  0.00  0.00  0.00
  YS02001895YS02001898    1.00   0.06  0.00  0.00  0.93  0.00  0.01  0.00  0.00  0.00
  YS02001898YS02001901    1.00   0.06  0.00  0.00  0.94  0.00  0.00  0.00  0.02  0.00
  YS02001901YS02001904    1.00   0.06  0.00  0.00  0.94  0.00  0.00  0.00  0.00  0.00
  YS02001904YS02001907    1.00   0.00  0.06  0.00  0.94  0.00  0.00  0.00  0.00  0.00
  YS02001887YS02001890    1.00   0.00  0.00  0.00  0.99  0.00  0.01  0.00  0.00  0.00
  YS02001652YS02001649    1.00   0.00  0.00  0.00  1.00  0.00  0.00  0.00  0.21  0.00
  YS02001655YS02001652    1.00   0.00  0.00  0.00  0.92  0.00  0.00  0.07  0.02  0.00
  YS02001658YS02001655    1.00   0.00  0.05  0.00  0.91  0.04  0.00  0.00  0.07  0.00
  YS02001661YS02001658    1.00   0.05  0.00  0.00  0.90  0.05  0.00  0.00  0.03  0.00
  YS02001664YS02001661    1.00   0.04  0.00  0.00  0.91  0.05  0.00  0.00  0.27  0.00
  YSB1154YSB6556          1.00   0.04  0.00  0.00  0.96  0.00  0.00  0.00  0.02  0.00
  YSB1174YSB1171          1.00   0.02  0.01  0.00  0.97  0.00  0.00  0.00  0.00  0.00
  YSB1171HS02004479       1.00   0.02  0.00  0.00  0.98  0.00  0.00  0.00  0.12  0.00
  HS02004881HS02006253    1.00   0.02  0.00  0.00  0.63  0.01  0.00  0.35  0.48  0.00
  YS02001793JiankangQianchi    1.00   0.00  0.00  0.00  0.66  0.34  0.00  0.00  0.48  0.00
  YS02001757CaochengTiaoxuchi    1.00   0.00  0.09  0.00  0.90  0.01  0.00  0.00  0.00  0.00
  WSF200WS02003060        1.00   0.00  0.01  0.00  0.96  0.03  0.00  0.00  0.44  0.00
  1                       1.00   0.00  0.00  0.00  0.00  1.00  0.00  0.00  0.53  0.00
  
  
  *************************
  Conduit Surcharge Summary
  *************************
  
  ----------------------------------------------------------------------------
                                                           Hours        Hours 
                         --------- Hours Full --------   Above Full   Capacity
  Conduit                Both Ends  Upstream  Dnstream   Normal Flow   Limited
  ----------------------------------------------------------------------------
  WS02006229WS02006228        3.40      3.55      3.40      4.71         3.40
  WS02006256WS02006235        5.55      5.56      6.48      3.99         0.01
  WS02006253WS02006251        2.05      2.05      2.12      0.01         0.02
  WS02006252WS02006251        2.03      2.03      2.77      2.56         0.01
  WS02006251WS02006249        2.06      2.07      2.12      1.81         1.53
  WS02006249WS02006248        2.04      2.04      2.12      3.42         0.01
  WS02006248WS02006247        2.10      2.10      2.23      0.01         0.01
  WS02006247WS02006245        2.18      2.26      2.18      3.74         2.18
  WS02006245WS02006243        2.20      2.22      2.24      1.00         0.98
  WS02006243WS02006242        2.29      2.29      2.53      0.01         0.01
  WS02006242WS02006240        2.33      2.33      2.69      2.66         0.01
  WS02006240WS02006239        2.32      2.38      2.37      1.97         1.34
  WS02006239WS02006238        2.69      2.75      2.95      2.04         1.56
  WS02006238WS02006235        2.88      2.88      3.17      0.01         0.01
  WS02006235WS02006234        2.31      2.31      2.79      5.41         0.01
  WS02006234WS02006232        2.67      2.67      3.36      1.38         1.38
  WS02006232WS02006231        1.69      1.69      3.36      1.53         0.01
  WS02006231WS02006230        1.29      1.29      1.73      5.57         0.01
  WS02006230WS02006229        4.18      4.56      4.18      5.85         4.17
  WS02006228WS02006109        3.48      3.86      3.48      5.14         3.48
  WS02006112WS02006115        0.01      0.01      2.12      0.01         0.01
  WS02006111WS02006112        0.01      0.01      4.72      0.01         0.01
  WS02006110WS02006113        0.01      0.01      3.72      0.01         0.01
  WS02006109WS02006110        1.77      1.77      3.86      1.79         0.01
  WS02004405WS02004406        0.01      0.01      0.01      1.89         0.01
  WS02004404WS02004405        0.01      0.01      0.01      5.76         0.01
  WS02003072WS02003073        0.01      0.01      0.01      5.51         0.01
  HS02004480HS02004478        0.01      0.01      0.01      0.26         0.01
  YS02001759YS02001757        5.64      5.64      5.67      0.01         0.01
  YS02001762YS02001759        5.63      5.63      5.64      0.01         0.01
  YS02001765YS02001762        5.61      5.61      5.63      0.01         0.01
  YS02001770YS02001767        5.60      5.60      5.60      0.01         0.73
  YS02001774YS02001770        5.59      5.59      5.62      0.01         0.01
  YS02001779YS02001774        5.43      5.43      5.62      0.01         0.01
  YS02001649YS02001757        5.63      5.63      5.67      0.01         0.01
  YS02001767YS02001765        5.60      5.60      5.61      0.01         0.01
  YS02006561YS02001783        0.01      0.01      0.04      0.01         0.01
  YS02001783YS02001784        0.04      0.04      0.06      0.01         0.01
  YS02001784YS02001785        0.03      0.06      0.03      1.32         0.03
  YS02001788YS02001790        0.01      0.01      0.77      0.01         0.01
  YS02001790YS02001791        0.77      0.77      0.85      0.01         0.01
  YS02001791YS02001793        0.85      0.85      1.31      0.01         0.01
  YS02001910YS02001907        0.01      0.01      0.84      0.01         0.01
  YS02001786YS02001788        0.01      0.03      0.01      0.99         0.01
  YS02001629YS02163301        5.59      5.59      5.59      0.01         0.01
  YS02001619YS02001622        5.06      5.06      5.22      0.01         0.02
  YS02001622YS02001625        5.22      5.22      5.58      0.01         0.01
  YS02001625YS02001629        5.09      5.09      5.58      0.01         0.01
  YS02163301YS02001633        5.59      5.59      5.61      0.01         0.01
  YS02163601YS02164001        5.61      5.61      5.63      0.01         0.01
  YS02164001YS02001641        5.61      5.61      5.61      0.01         0.02
  YS02001641YS02001644        5.61      5.61      5.61      0.04         1.04
  YS02001647YS02001649        5.52      5.52      5.63      0.01         0.01
  YS02006553YS02006556        0.01      0.01      0.93      0.01         0.01
  YS02006556YS02006558        0.19      0.19      0.99      0.01         0.01
  YS02001907YS02006553        1.36      1.36      1.54      0.01         0.01
  YS02006558YS02006561        0.01      0.01      0.01      1.22         0.01
  YS02001633YS02163601        5.60      5.60      5.63      0.01         0.01
  YS02001644YS02001647        5.52      5.52      5.61      0.01         0.01
  YS02001745YS02001748        0.01      0.01      4.05      0.01         0.01
  YS02001748YS02001751        4.38      4.38      5.18      0.01         0.01
  YS02001751YS02001754        5.18      5.18      5.44      0.01         0.01
  YS02001754YS02001757        5.48      5.48      5.67      0.01         0.01
  YS02001904YS02001907        0.01      0.01      0.93      0.01         0.01
  YS02001652YS02001649        5.54      5.54      5.63      0.01         0.01
  YS02001655YS02001652        5.21      5.21      5.47      0.01         0.01
  YS02001658YS02001655        4.14      4.14      5.21      0.01         0.01
  YS02001661YS02001658        0.04      0.04      4.14      0.01         0.01
  YS02001664YS02001661        0.01      0.01      0.68      0.01         0.01
  HS02004881HS02006253        0.01      0.01      1.24      0.01         0.01
  YS02001793JiankangQianchi        1.17      1.17      3.22      0.01         0.01
  YS02001757CaochengTiaoxuchi        4.56      4.56      5.67      0.01         0.01
  
  
  ***************
  Pumping Summary
  ***************
  
  ---------------------------------------------------------------------------------------------------------
                                                  Min       Avg       Max     Total     Power    % Time Off
                        Percent   Number of      Flow      Flow      Flow    Volume     Usage    Pump Curve
  Pump                 Utilized   Start-Ups       LPS       LPS       LPS  10^6 ltr     Kw-hr    Low   High
  ---------------------------------------------------------------------------------------------------------
  CC-Pump-1               55.31           2      0.00    163.39    200.00     2.580      3.71    0.0    0.0
  CC-Pump-2               46.80           4      0.00    115.90    200.00     1.860      3.10    0.0    0.0
  JK-Pump-1               57.45           5      0.00    206.10    300.00     3.010     51.53    0.0    0.0
  JK-Pump-2               42.55           4      0.00    343.19    683.00     3.598     63.57    0.0   96.3
  XR-Pump-1               97.87           2      0.00     93.05     95.00     2.508     37.12    0.0    0.0
  XR-Pump-2               97.87           2      0.00     92.52     95.00     2.451     35.86    0.0    0.0
  XR-Pump-3               93.61           4      0.00     92.48     95.00     2.337     33.42    0.0    0.0
  XR-Pump-4               93.61           4      0.00     92.48     95.00     2.337     33.42    0.0    0.0
  
  
  ***************************
  Link Pollutant Load Summary
  ***************************
  
  ------------------------------------------------------------------------------------------
                                 COD            SS            TN            TP         NH4-N
  Link                            kg            kg            kg            kg            kg
  ------------------------------------------------------------------------------------------
  WS02003066WSF200           603.468      1075.987        17.706         1.622         9.544
  WS02006287WS02006284       174.857       317.577         7.541         0.815         4.359
  WS02006284WS02006280       175.276       318.252         7.581         0.820         4.384
  WS02006280WS02006229       175.254       318.205         7.580         0.820         4.384
  WS02006229WS02006228       617.129      1099.829        17.480         1.567         9.342
  WS02006256WS02006235       126.072       220.349         3.204         0.269         1.676
  WS02006253WS02006251        34.146        64.426         0.810         0.064         0.410
  WS02006252WS02006251       323.614       569.990         6.793         0.479         3.318
  WS02006251WS02006249       347.806       616.910         7.408         0.530         3.636
  WS02006249WS02006248       327.409       581.088         6.976         0.500         3.425
  WS02006248WS02006247       327.035       580.497         6.967         0.499         3.420
  WS02006247WS02006245       326.232       579.113         6.948         0.498         3.411
  WS02006245WS02006243       325.396       577.782         6.924         0.496         3.398
  WS02006243WS02006242       325.130       577.424         6.919         0.495         3.395
  WS02006242WS02006240       324.886       577.099         6.911         0.495         3.391
  WS02006240WS02006239       325.265       577.922         6.914         0.495         3.392
  WS02006239WS02006238       326.406       579.993         6.947         0.498         3.411
  WS02006238WS02006235       327.008       580.924         6.967         0.500         3.422
  WS02006235WS02006234       446.915       790.273        10.025         0.757         5.023
  WS02006234WS02006232       446.049       788.785        10.009         0.756         5.015
  WS02006232WS02006231       444.907       786.805         9.980         0.753         5.000
  WS02006231WS02006230       443.956       785.176         9.964         0.753         4.993
  WS02006230WS02006229       444.428       786.244         9.984         0.755         5.005
  WS02006228WS02006109       616.042      1097.957        17.458         1.566         9.331
  WS02006116WS02004401       620.492      1105.415        18.113         1.653         9.751
  WS02006115WS02006116       622.240      1108.427        18.157         1.657         9.774
  WS02006113WS02006111       621.097      1105.642        18.172         1.659         9.787
  WS02006112WS02006115       624.042      1111.538        18.217         1.662         9.806
  WS02006111WS02006112       620.367      1104.366        18.154         1.657         9.777
  WS02006110WS02006113       622.001      1107.204        18.203         1.662         9.804
  WS02006109WS02006110       623.575      1109.910        18.260         1.667         9.836
  WS02004411WS02004412       607.825      1083.459        17.852         1.636         9.625
  WS02004401WS02004402       618.745      1102.401        18.058         1.648         9.721
  WS02004413WS02003067       604.280      1077.384        17.725         1.623         9.554
  WS02004412WS02004413       606.152      1080.581        17.802         1.631         9.598
  WS02004410WS02004411       609.259      1085.924        17.892         1.639         9.646
  WS02004409WS02004410       610.742      1088.474        17.937         1.643         9.670
  WS02004407WS02004409       612.037      1090.699        17.968         1.645         9.686
  WS02004406WS02004407       612.424      1091.357        17.969         1.645         9.686
  WS02004405WS02004406       614.441      1094.808        18.040         1.652         9.725
  WS02004404WS02004405       615.919      1097.391        18.050         1.651         9.726
  WS02004403WS02004404       615.730      1097.205        17.970         1.640         9.673
  WS02004402WS02004403       617.154      1099.661        18.016         1.644         9.699
  WS02004139WS02001211      1460.786      2360.993       131.271        16.249        81.571
  WS02004138WS02004139      1458.750      2357.731       131.078        16.225        81.451
  WS02003067WS02003066       603.692      1076.369        17.714         1.622         9.549
  WS02001213WS02003059      1512.397      2443.575       136.224        16.868        84.666
  WS02001212WS02001213      1512.355      2443.503       136.223        16.868        84.666
  WS02001211WS02001212      1512.234      2443.311       136.210        16.866        84.658
  WS02003072WS02003073      2229.353      3700.773       165.047        19.883       101.168
  WS02003069WS02003072      2232.364      3705.780       165.255        19.908       101.295
  WS02003060WS02003069      2231.785      3704.971       165.129        19.891       101.213
  WS02003059WS02003060      1514.583      2447.078       136.431        16.894        84.796
  HS02004901HS02004770         5.796        10.984         0.109         0.008         0.051
  HS02004876HS02004881        21.544        41.444         0.527         0.041         0.267
  HS02004870HS02004876        16.331        31.271         0.437         0.036         0.225
  HS02004842HS02004848         2.945         5.415         0.063         0.004         0.029
  HS02004837HS02004842         7.551        12.735         0.531         0.063         0.323
  HS02004830HS02004837        55.764        93.408         4.366         0.533         2.694
  HS02004824HS02004830        56.514        94.609         4.438         0.541         2.738
  HS02004817HS02004824        68.505       117.668         4.708         0.560         2.873
  HS02004770HS02004777        22.009        42.071         0.459         0.031         0.210
  HS02004799HS02004480        79.772       146.624         2.660         0.262         1.456
  HS02004792HS02004799        72.833       132.653         2.579         0.261         1.426
  HS02004788HS02004792        44.007        79.859         1.887         0.200         1.076
  HS02004785HS02004788        23.510        44.486         0.611         0.050         0.306
  HS02004777HS02004785        22.946        43.570         0.561         0.044         0.275
  HS02004480HS02004478        99.553       185.287         2.953         0.281         1.588
  HS02004479HS02004480        23.957        45.309         0.690         0.068         0.379
  HS02004862HS02004870        12.145        22.796         0.354         0.031         0.186
  HS02004848HS02004852         4.219         7.876         0.088         0.006         0.040
  HS02004856HS02004862         7.714        14.877         0.155         0.010         0.073
  HS02004852HS02004856         4.214         7.867         0.088         0.006         0.040
  HS02004802HS02004478        75.640       132.855         4.616         0.538         2.788
  HS02004478WS02006287       175.047       317.902         7.556         0.817         4.368
  HS02004817HS02004807        67.146       115.493         4.580         0.544         2.793
  HS02004807HS02004802        76.242       133.813         4.674         0.545         2.825
  YS02001759YS02001757       227.058       400.897         4.763         0.330         2.344
  YS02001762YS02001759       114.996       204.467         2.617         0.186         1.311
  YS02001765YS02001762       114.324       203.278         2.627         0.188         1.319
  YS02001770YS02001767       111.910       199.373         2.330         0.148         1.130
  YS02001774YS02001770        15.196        27.087         0.320         0.021         0.156
  YS02001779YS02001774        14.060        24.818         0.409         0.035         0.220
  YS02001649YS02001757       231.145       397.591         4.755         0.337         2.280
  YS02001767YS02001765       114.215       203.047         2.637         0.189         1.326
  YS02006561YS02001783       478.283       838.859        11.265         0.896         5.771
  YS02001783YS02001784       478.204       838.745        11.262         0.895         5.769
  YS02001784YS02001785       485.567       850.548        11.975         0.985         6.216
  YS02001788YS02001790       486.209       851.594        12.049         0.994         6.262
  YS02001790YS02001791       487.208       853.204        12.147         1.006         6.324
  YS02001791YS02001793       487.371       853.484        12.149         1.006         6.324
  YS02001910YS02001907       158.721       272.810         4.917         0.430         2.660
  YS02001786YS02001788       485.790       850.919        12.003         0.988         6.233
  YS02001915YS02001910       158.641       272.648         4.867         0.423         2.627
  YS02001918YS02001915        77.269       126.680         3.111         0.325         1.787
  YS02001923YS02001920        57.333        94.825         1.163         0.081         0.569
  YS02001926YS02001923        56.986        94.274         1.125         0.076         0.544
  YS02001929YS02001926        56.744        93.876         1.094         0.072         0.525
  YS02001920YS02001918        77.244       126.685         3.082         0.321         1.768
  YS02001629YS02163301        64.596       110.644         1.387         0.088         0.644
  YS02001619YS02001622        66.956       114.270         1.444         0.091         0.669
  YS02001622YS02001625        65.933       112.692         1.419         0.090         0.657
  YS02001625YS02001629        64.923       111.194         1.394         0.088         0.647
  YS02163301YS02001633        65.799       112.781         1.407         0.090         0.655
  YS02163601YS02164001       178.527       304.060         3.683         0.258         1.765
  YS02164001YS02001641       178.303       303.696         3.666         0.256         1.755
  YS02001641YS02001644       179.403       305.538         3.679         0.257         1.760
  YS02001647YS02001649       193.915       331.415         3.929         0.276         1.885
  YS02006553YS02006556       345.043       603.028         8.457         0.698         4.399
  YS02006556YS02006558       344.998       602.942         8.426         0.693         4.378
  YSB6556YSB1171              13.126        24.999         0.308         0.028         0.162
  YS02001907YS02006553       345.096       603.142         8.459         0.698         4.400
  YS02006558YS02006561       478.350       838.971        11.264         0.895         5.771
  YS02001633YS02163601       179.162       305.023         3.664         0.255         1.749
  YS02001644YS02001647       200.103       341.893         4.033         0.283         1.933
  YS02001745YS02001748        95.224       166.622         2.143         0.141         1.056
  YS02001748YS02001751        95.673       167.189         2.285         0.160         1.149
  YS02001751YS02001754        95.028       166.131         2.298         0.163         1.160
  YS02001754YS02001757        95.906       167.488         2.468         0.186         1.270
  YS02001882YS02001884         1.845         3.130         0.041         0.003         0.021
  YS02001884YS02001887         4.855         8.431         0.104         0.009         0.053
  YS02001890YS02001895       187.637       332.183         3.571         0.269         1.755
  YS02001895YS02001898       187.480       331.957         3.564         0.269         1.751
  YS02001898YS02001901       187.339       331.750         3.561         0.269         1.749
  YS02001901YS02001904       187.346       331.795         3.578         0.271         1.761
  YS02001904YS02001907       187.909       332.732         3.657         0.281         1.811
  YS02001887YS02001890       188.498       333.513         3.632         0.277         1.792
  YS02001652YS02001649        60.509       105.865         1.316         0.096         0.621
  YS02001655YS02001652        61.139       106.899         1.332         0.097         0.629
  YS02001658YS02001655        60.504       105.848         1.243         0.085         0.571
  YS02001661YS02001658        68.821       120.715         1.410         0.097         0.649
  YS02001664YS02001661        84.222       145.501         1.757         0.120         0.806
  YSB1154YSB6556              12.634        24.212         0.248         0.020         0.124
  YSB1174YSB1171               9.004        17.359         0.211         0.019         0.110
  YSB1171HS02004479           23.881        45.195         0.683         0.067         0.375
  HS02004881HS02006253        24.308        46.959         0.570         0.044         0.286
  YS02001793JiankangQianchi       488.487       855.288        12.203         1.012         6.356
  YS02001757CaochengTiaoxuchi       492.299       861.156        10.445         0.737         5.109
  WSF200WS02003060           603.425      1075.931        17.717         1.623         9.552
  1                         2242.959      3722.633       166.398        20.053       102.014
  CC-Pump-1                  189.275       333.688         3.966         0.280         1.937
  CC-Pump-2                  134.352       236.327         2.826         0.199         1.380
  JK-Pump-1                  140.008       245.118         3.557         0.299         1.861
  JK-Pump-2                  193.363       342.779         4.516         0.361         2.315
  XR-Pump-1                  387.998       626.727        35.008         4.336        21.762
  XR-Pump-2                  375.355       606.499        33.795         4.184        21.003
  XR-Pump-3                  347.811       562.429        31.150         3.854        19.351
  XR-Pump-4                  347.811       562.429        31.150         3.854        19.351
  

  Analysis begun on:  Sun Jul 11 13:01:01 2021
  Analysis ended on:  Sun Jul 11 13:01:04 2021
  Total elapsed time: 00:00:03