
  EPA STORM WATER MANAGEMENT MODEL - VERSION 5.1 (Build 5.3.0.dev0)
  --------------------------------------------------------------

  WARNING 04: minimum elevation drop used for Conduit WS02004404WS02004405
  WARNING 03: negative offset ignored for Link YS02001904YS02001907
  
  *********************************************************
  NOTE: The summary statistics displayed in this report are
  based on results found at every computational time step,  
  not just on results from each reporting time step.
  *********************************************************
  
  ****************
  Analysis Options
  ****************
  Flow Units ............... LPS
  Process Models:
    Rainfall/Runoff ........ YES
    RDII ................... NO
    Snowmelt ............... NO
    Groundwater ............ NO
    Flow Routing ........... YES
    Ponding Allowed ........ NO
    Water Quality .......... YES
  Infiltration Method ...... HORTON
  Flow Routing Method ...... DYNWAVE
  Surcharge Method ......... EXTRAN
  Starting Date ............ 08/28/2015 08:00:00
  Ending Date .............. 08/28/2015 15:50:00
  Antecedent Dry Days ...... 8.0
  Report Time Step ......... 00:01:00
  Wet Time Step ............ 00:01:00
  Dry Time Step ............ 00:01:00
  Routing Time Step ........ 5.00 sec
  Variable Time Step ....... YES
  Maximum Trials ........... 8
  Number of Threads ........ 4
  Head Tolerance ........... 0.001500 m
  
  
  **************************        Volume         Depth
  Runoff Quantity Continuity     hectare-m            mm
  **************************     ---------       -------
  Total Precipitation ......         2.691         5.892
  Evaporation Loss .........         0.000         0.000
  Infiltration Loss ........         0.576         1.261
  Surface Runoff ...........         1.571         3.440
  Final Storage ............         0.544         1.192
  Continuity Error (%) .....        -0.022
  
  
  **************************           COD            SS            TN            TP         NH4-N
  Runoff Quality Continuity             kg            kg            kg            kg            kg
  **************************    ----------    ----------    ----------    ----------    ----------
  Initial Buildup ..........     41378.656     70582.865      1804.177       168.684      1032.807
  Surface Buildup ..........        14.889        19.874         2.897         0.267         1.713
  Wet Deposition ...........         0.000         0.000         0.000         0.000         0.000
  Sweeping Removal .........         0.000         0.000         0.000         0.000         0.000
  Infiltration Loss ........        28.916        51.025         0.570         0.038         0.268
  BMP Removal ..............         0.000         0.000         0.000         0.000         0.000
  Surface Runoff ...........       953.381      1631.846        19.258         1.251         9.079
  Remaining Buildup ........     40410.939     68919.344      1787.239       167.661      1025.170
  Continuity Error (%) .....         0.001         0.001         0.000         0.000         0.000
  
  
  **************************        Volume        Volume
  Flow Routing Continuity        hectare-m      10^6 ltr
  **************************     ---------     ---------
  Dry Weather Inflow .......         0.616         6.165
  Wet Weather Inflow .......         1.570        15.705
  Groundwater Inflow .......         0.000         0.000
  RDII Inflow ..............         0.000         0.000
  External Inflow ..........         0.102         1.024
  External Outflow .........         1.646        16.461
  Flooding Loss ............         0.287         2.869
  Evaporation Loss .........         0.000         0.000
  Exfiltration Loss ........         0.000         0.000
  Initial Stored Volume ....         0.076         0.761
  Final Stored Volume ......         0.543         5.431
  Continuity Error (%) .....        -4.683
  
  
  **************************           COD            SS            TN            TP         NH4-N
  Quality Routing Continuity            kg            kg            kg            kg            kg
  **************************    ----------    ----------    ----------    ----------    ----------
  Dry Weather Inflow .......      1541.201      2465.922       147.955        18.494        92.472
  Wet Weather Inflow .......       953.069      1631.357        19.251         1.251         9.076
  Groundwater Inflow .......         0.000         0.000         0.000         0.000         0.000
  RDII Inflow ..............         0.000         0.000         0.000         0.000         0.000
  External Inflow ..........       183.418       293.469        17.608         2.201        11.005
  External Outflow .........      1931.068      3160.551       149.296        18.094        91.816
  Flooding Loss ............       154.495       264.899         4.003         0.337         2.098
  Exfiltration Loss ........         0.000         0.000         0.000         0.000         0.000
  Mass Reacted .............         0.000         0.000         0.000         0.000         0.000
  Initial Stored Mass ......         0.000         0.000         0.000         0.000         0.000
  Final Stored Mass ........       423.348       688.264        22.649         2.527        13.397
  Continuity Error (%) .....         6.303         6.309         4.798         4.505         4.657
  
  
  *************************
  Highest Continuity Errors
  *************************
  Node YS02001774 (35.44%)
  Node HS02004842 (24.37%)
  Node JK-storage (-21.04%)
  Node YS02001884 (18.73%)
  Node YSB1171 (5.56%)
  
  
  ***************************
  Time-Step Critical Elements
  ***************************
  Link WS02006252WS02006251 (68.98%)
  Link WS02006280WS02006229 (9.77%)
  Link WS02006238WS02006235 (5.81%)
  Link YS02001793JiankangQianchi (5.40%)
  Link WS02006235WS02006234 (2.74%)
  
  
  ********************************
  Highest Flow Instability Indexes
  ********************************
  Link WS02006113WS02006111 (46)
  Link YS02001779YS02001774 (30)
  Link WS02006111WS02006112 (28)
  Link YS02001774YS02001770 (27)
  Link YS02001619YS02001622 (25)
  
  
  *************************
  Routing Time Step Summary
  *************************
  Minimum Time Step           :     0.01 sec
  Average Time Step           :     1.18 sec
  Maximum Time Step           :     5.00 sec
  Percent in Steady State     :    -0.00
  Average Iterations per Step :     4.35
  Percent Not Converging      :    23.46
  
  
  ***************************
  Subcatchment Runoff Summary
  ***************************
  
  ------------------------------------------------------------------------------------------------------------------------------
                            Total      Total      Total      Total     Imperv       Perv      Total       Total     Peak  Runoff
                           Precip      Runon       Evap      Infil     Runoff     Runoff     Runoff      Runoff   Runoff   Coeff
  Subcatchment                 mm         mm         mm         mm         mm         mm         mm    10^6 ltr      LPS
  ------------------------------------------------------------------------------------------------------------------------------
  sub0                       5.89       0.00       0.00       0.41       5.43       0.01       5.44        0.00     1.76   0.923
  sub1                       5.89       0.00       0.00       0.65       5.16       0.00       5.16        0.03    10.23   0.876
  sub2                       5.89       0.00       0.00       2.18       3.63       0.00       3.63        0.03     9.18   0.617
  sub3                       5.89       0.00       0.00       2.18       3.60       0.00       3.60        0.08    19.14   0.611
  sub4                       5.89       0.00       0.00       0.65       5.02       0.00       5.02        0.10    21.61   0.852
  sub5                       5.89       0.00       0.00       0.41       5.39       0.00       5.39        0.06    18.19   0.915
  sub7                       5.89       0.00       0.00       0.53       5.30       0.00       5.30        0.02     6.18   0.900
  sub8                       5.89       0.00       0.00       0.53       5.29       0.00       5.29        0.03    11.09   0.899
  sub9                       5.89       0.00       0.00       0.53       5.29       0.00       5.29        0.03     8.25   0.898
  sub10                      5.89       0.00       0.00       0.47       5.34       0.00       5.34        0.06    18.07   0.906
  sub11                      5.89       0.00       0.00       0.47       5.35       0.00       5.36        0.06    20.75   0.909
  sub12                      5.89       0.00       0.00       0.76       5.08       0.00       5.08        0.04    16.78   0.863
  sub14                      5.89       0.00       0.00       0.53       5.29       0.00       5.29        0.05    16.15   0.898
  sub15                      5.89       0.00       0.00       1.77       4.06       0.00       4.07        0.07    22.00   0.690
  sub16                      5.89       0.00       0.00       1.94       3.91       0.00       3.91        0.04    14.96   0.664
  sub17                      5.89       0.00       0.00       1.88       3.96       0.00       3.97        0.03    12.19   0.674
  sub22                      5.89       0.00       0.00       2.53       3.32       0.00       3.32        0.21    70.73   0.564
  sub23                      5.89       0.00       0.00       2.18       3.67       0.00       3.67        0.18    59.99   0.623
  sub60                      5.89       0.00       0.00       0.71       3.78       0.00       3.78        1.15   108.11   0.642
  sub61                      5.89       0.00       0.00       1.00       3.98       0.00       3.98        1.23   136.81   0.675
  sub62                      5.89       0.00       0.00       0.47       4.29       0.00       4.29        1.32   139.48   0.727
  sub63                      5.89       0.00       0.00       1.71       3.52       0.00       3.52        1.07   128.09   0.598
  sub64                      5.89       0.00       0.00       0.88       3.62       0.00       3.62        1.10   102.62   0.614
  sub65                      5.89       0.00       0.00       0.77       3.67       0.00       3.67        1.13   104.08   0.623
  sub66                      5.89       0.00       0.00       1.71       3.14       0.00       3.14        0.96    94.31   0.533
  sub67                      5.89       0.00       0.00       0.47       4.65       0.00       4.65        1.44   180.35   0.789
  sub68                      5.89       0.00       0.00       0.82       4.22       0.00       4.22        1.30   151.57   0.716
  sub69                      5.89       0.00       0.00       0.88       4.49       0.00       4.49        1.05   151.54   0.762
  sub70                      5.89       4.58       0.00       3.55       5.68       0.01       5.69        1.30   123.00   0.543
  sub71                      5.89       0.00       0.00       0.47       4.12       0.00       4.12        0.97    97.05   0.700
  sub72                      5.89       0.00       0.00       0.41       3.02       0.00       3.02        0.61    46.40   0.512
  1                          5.89       5.54       0.00       1.33       5.93       0.99       6.92        1.63   119.56   0.605
  2                          5.89       0.00       0.00       2.92       1.35       0.34       1.69        0.68    93.31   0.287
  
  
  ****************************
  Subcatchment Washoff Summary
  ****************************
  
  ------------------------------------------------------------------------------------------
                                 COD            SS            TN            TP         NH4-N
  Subcatchment                    kg            kg            kg            kg            kg
  ------------------------------------------------------------------------------------------
  sub0                         0.910         1.707         0.015         0.001         0.007
  sub1                         3.670         6.958         0.069         0.005         0.033
  sub2                         2.092         3.814         0.046         0.003         0.021
  sub3                         5.048         9.072         0.110         0.007         0.050
  sub4                         8.003        15.039         0.164         0.009         0.078
  sub5                         8.463        15.853         0.148         0.011         0.071
  sub7                         1.951         3.780         0.037         0.002         0.018
  sub8                         2.935         5.795         0.059         0.003         0.028
  sub9                         2.487         4.844         0.048         0.003         0.023
  sub10                        7.027        13.342         0.128         0.009         0.061
  sub11                        6.989        13.470         0.130         0.009         0.062
  sub12                        5.862        11.123         0.104         0.008         0.050
  sub14                        5.280        10.186         0.100         0.006         0.048
  sub15                        6.180        11.352         0.121         0.009         0.056
  sub16                        3.942         7.256         0.076         0.006         0.035
  sub17                        3.610         6.584         0.067         0.005         0.031
  sub22                       18.219        32.760         0.353         0.026         0.163
  sub23                       11.197        20.902         0.248         0.016         0.112
  sub60                       61.287       104.061         1.300         0.075         0.621
  sub61                       77.767       131.811         1.505         0.098         0.721
  sub62                       81.962       141.436         1.685         0.101         0.805
  sub63                       58.303        97.615         1.252         0.084         0.571
  sub64                       73.081       119.402         1.398         0.098         0.662
  sub65                       74.922       122.944         1.445         0.099         0.686
  sub66                       44.041        72.783         0.980         0.061         0.452
  sub67                      123.437       211.852         2.241         0.159         1.078
  sub68                       87.488       150.175         1.750         0.112         0.831
  sub69                       82.160       143.554         1.588         0.107         0.753
  sub70                      124.397       216.588         2.609         0.173         1.204
  sub71                       54.206        94.243         1.193         0.065         0.568
  sub72                       35.811        57.358         0.704         0.046         0.337
  1                           67.143       117.833         1.456         0.097         0.662
  2                           10.068        16.499         0.326         0.019         0.136
  ------------------------------------------------------------------------------------------
  System                    1159.937      1991.988        23.454         1.531        11.036
  
  
  ******************
  Node Depth Summary
  ******************
  
  ---------------------------------------------------------------------------------
                                 Average  Maximum  Maximum  Time of Max    Reported
                                   Depth    Depth      HGL   Occurrence   Max Depth
  Node                 Type       Meters   Meters   Meters  days hr:min      Meters
  ---------------------------------------------------------------------------------
  WS02001211           JUNCTION     0.68     0.80     5.63     0  04:00        0.80
  WS02001212           JUNCTION     0.40     0.51     5.57     0  04:00        0.51
  WS02001213           JUNCTION     0.65     0.76     5.53     0  03:59        0.76
  WS02003069           JUNCTION     0.47     0.59     5.17     0  03:59        0.59
  WS02003072           JUNCTION     0.53     0.65     5.02     0  03:59        0.65
  WS02003073           JUNCTION     0.32     0.40     4.46     0  04:00        0.40
  WS02003060           JUNCTION     0.41     0.52     5.45     0  03:58        0.52
  WS02003066           JUNCTION     0.24     0.30     5.86     0  03:57        0.30
  WS02003059           JUNCTION     0.71     0.81     5.50     0  03:59        0.81
  WS02003067           JUNCTION     0.60     0.71     6.03     0  03:57        0.71
  WS02004401           JUNCTION     0.69     0.87     6.87     0  03:53        0.87
  WS02004402           JUNCTION     0.72     0.89     6.85     0  03:53        0.89
  WS02004403           JUNCTION     0.74     0.91     6.84     0  03:53        0.91
  WS02004404           JUNCTION     0.82     0.98     6.83     0  03:53        0.98
  WS02004406           JUNCTION     0.83     0.97     6.80     0  03:53        0.97
  WS02004409           JUNCTION     0.51     0.68     6.45     0  03:56        0.68
  WS02004410           JUNCTION     0.53     0.69     6.41     0  03:56        0.69
  WS02004411           JUNCTION     0.55     0.70     6.38     0  03:56        0.70
  WS02004412           JUNCTION     0.57     0.71     6.35     0  03:56        0.71
  WS02004413           JUNCTION     0.73     0.87     6.34     0  03:57        0.87
  WS02004405           JUNCTION     0.82     0.97     6.82     0  03:53        0.97
  WS02006109           JUNCTION     0.77     1.00     7.62     0  03:45        1.00
  WS02006110           JUNCTION     0.76     0.94     7.53     0  03:43        0.94
  WS02006111           JUNCTION     0.22     0.29     7.00     0  03:44        0.29
  WS02006112           JUNCTION     0.86     1.11     6.99     0  03:55        1.08
  WS02006113           JUNCTION     0.35     0.47     7.36     0  03:43        0.46
  WS02006115           JUNCTION     0.58     0.77     6.91     0  03:54        0.77
  WS02006116           JUNCTION     0.67     0.85     6.89     0  03:55        0.85
  WS02006230           JUNCTION     0.76     1.15     7.89     0  03:42        1.14
  WS02006231           JUNCTION     0.51     0.89     8.01     0  03:43        0.88
  WS02006232           JUNCTION     0.66     1.08     8.12     0  03:43        1.07
  WS02006234           JUNCTION     0.59     1.09     8.25     0  03:43        1.08
  WS02006235           JUNCTION     0.63     1.18     8.34     0  03:43        1.17
  WS02006238           JUNCTION     0.66     1.21     8.35     0  03:43        1.20
  WS02006240           JUNCTION     0.57     1.15     8.44     0  06:19        1.14
  WS02006242           JUNCTION     0.63     1.23     8.50     0  06:19        1.22
  WS02006243           JUNCTION     0.52     1.14     8.56     0  06:19        1.13
  WS02006245           JUNCTION     0.50     1.12     8.61     0  03:51        1.11
  WS02006247           JUNCTION     0.51     1.14     8.64     0  03:50        1.13
  WS02006248           JUNCTION     0.46     1.08     8.67     0  03:51        1.08
  WS02006249           JUNCTION     0.49     1.09     8.69     0  03:40        1.09
  WS02006239           JUNCTION     0.62     1.19     8.40     0  03:43        1.18
  WS02006251           JUNCTION     0.47     1.33     9.00     0  03:42        1.13
  WS02006252           JUNCTION     0.34     0.88     9.12     0  03:42        0.68
  WS02006253           JUNCTION     0.50     1.43     9.07     0  03:42        1.15
  WS02006256           JUNCTION     1.39     2.35     9.28     0  00:18        2.35
  WS02004138           JUNCTION     0.15     0.20     7.45     0  00:00        0.19
  WS02004139           JUNCTION     0.62     0.74     5.65     0  04:01        0.74
  WS02004407           JUNCTION     0.23     0.30     6.61     0  03:53        0.30
  WS02006228           JUNCTION     0.77     1.05     7.71     0  03:43        1.05
  WS02006229           JUNCTION     0.75     1.05     7.75     0  03:43        1.05
  WS02006280           JUNCTION     0.05     0.17     8.44     0  02:12        0.17
  WS02006284           JUNCTION     0.34     0.51     8.91     0  02:12        0.51
  WS02006287           JUNCTION     0.07     0.25     9.20     0  02:12        0.25
  WSF200               JUNCTION     0.23     0.31     5.54     0  04:47        0.31
  HS02004901           JUNCTION     0.10     0.26    10.08     0  02:10        0.26
  HS02004881           JUNCTION     0.00     0.03     9.06     0  02:11        0.03
  HS02004876           JUNCTION     0.03     0.11     9.14     0  02:08        0.11
  HS02004870           JUNCTION     0.01     0.05     9.34     0  02:12        0.05
  HS02004862           JUNCTION     0.01     0.06     9.44     0  02:13        0.06
  HS02004856           JUNCTION     0.07     0.11     9.54     0  02:12        0.11
  HS02004852           JUNCTION     0.01     0.03     9.55     0  02:13        0.03
  HS02004848           JUNCTION     0.01     0.03     9.64     0  02:12        0.03
  HS02004842           JUNCTION     0.33     0.37     9.64     0  02:11        0.37
  HS02004837           JUNCTION     0.02     0.06     9.64     0  02:11        0.06
  HS02004830           JUNCTION     0.03     0.07     9.54     0  02:12        0.07
  HS02004824           JUNCTION     0.02     0.05     9.45     0  02:14        0.05
  HS02004817           JUNCTION     0.42     0.55     9.40     0  02:12        0.55
  HS02004807           JUNCTION     0.11     0.23     9.40     0  02:12        0.23
  HS02004802           JUNCTION     0.14     0.26     9.39     0  02:12        0.26
  HS02004799           JUNCTION     0.09     0.30     9.51     0  02:10        0.30
  HS02004792           JUNCTION     0.02     0.12     9.64     0  02:10        0.12
  HS02004788           JUNCTION     0.02     0.09     9.99     0  02:11        0.09
  HS02004785           JUNCTION     0.03     0.15    10.06     0  02:10        0.15
  HS02004777           JUNCTION     0.13     0.28    10.08     0  02:10        0.28
  HS02004770           JUNCTION     0.09     0.25    10.08     0  02:10        0.25
  HS02004480           JUNCTION     0.05     0.23     9.47     0  02:11        0.23
  HS02004479           JUNCTION     0.09     0.27     9.47     0  02:11        0.27
  HS02004478           JUNCTION     0.05     0.15     9.38     0  02:12        0.15
  YS02001745           JUNCTION     0.61     0.84     8.36     0  04:38        0.84
  YS02001748           JUNCTION     1.00     1.29     8.36     0  04:38        1.28
  YS02001751           JUNCTION     1.18     1.48     8.36     0  04:34        1.48
  YS02001754           JUNCTION     1.43     1.76     8.37     0  04:37        1.75
  YS02001762           JUNCTION     1.63     1.98     8.38     0  04:37        1.97
  YS02001765           JUNCTION     1.58     1.93     8.38     0  04:40        1.92
  YS02001767           JUNCTION     1.55     1.89     8.38     0  04:38        1.88
  YS02001770           JUNCTION     1.54     1.89     8.38     0  04:54        1.88
  YS02001774           JUNCTION     1.61     1.96     8.38     0  04:54        1.95
  YS02001779           JUNCTION     1.36     1.68     8.37     0  04:06        1.68
  YS02001882           JUNCTION     0.29     0.56     7.27     0  02:39        0.56
  YS02001884           JUNCTION     0.38     0.66     7.27     0  02:39        0.66
  YS02001759           JUNCTION     1.67     2.01     8.38     0  04:25        2.01
  YS02001887           JUNCTION     0.46     0.73     7.27     0  02:39        0.73
  YS02001890           JUNCTION     0.49     0.76     7.27     0  02:39        0.76
  YS02001898           JUNCTION     0.26     0.52     7.25     0  02:38        0.52
  YS02001901           JUNCTION     0.38     0.64     7.25     0  02:38        0.64
  YS02001904           JUNCTION     0.36     0.62     7.25     0  02:38        0.62
  YS02001907           JUNCTION     0.69     0.96     7.25     0  02:38        0.96
  YS02001910           JUNCTION     0.48     0.74     7.25     0  02:38        0.74
  YS02001915           JUNCTION     0.28     0.53     7.25     0  02:38        0.53
  YS02001918           JUNCTION     0.09     0.18     7.25     0  02:39        0.18
  YS02001619           JUNCTION     1.14     1.50     8.43     0  03:39        1.48
  YS02001629           JUNCTION     1.49     1.85     8.40     0  03:39        1.84
  YS02001641           JUNCTION     1.60     1.95     8.39     0  03:54        1.92
  YS02001644           JUNCTION     1.60     1.92     8.35     0  03:39        1.92
  YS02001652           JUNCTION     1.45     1.80     8.40     0  04:34        1.79
  YS02001655           JUNCTION     1.21     1.57     8.42     0  04:31        1.55
  YS02001920           JUNCTION     0.19     0.26     7.27     0  02:39        0.26
  YS02001923           JUNCTION     0.07     0.10     7.36     0  03:01        0.10
  YS02001926           JUNCTION     0.15     0.20     7.65     0  03:01        0.20
  YS02001929           JUNCTION     0.07     0.10     7.80     0  03:01        0.10
  YS02001658           JUNCTION     0.95     1.29     8.43     0  04:29        1.28
  YS02001661           JUNCTION     0.71     1.05     8.45     0  04:31        1.03
  YS02001664           JUNCTION     0.26     0.53     8.45     0  04:32        0.52
  YS02001622           JUNCTION     1.17     1.51     8.42     0  03:39        1.50
  YS02001633           JUNCTION     1.59     1.96     8.42     0  03:54        1.93
  YS02001649           JUNCTION     1.64     1.99     8.38     0  04:37        1.98
  YS02001757           JUNCTION     1.76     2.11     8.37     0  04:34        2.10
  YS02001895           JUNCTION     0.26     0.51     7.26     0  02:39        0.51
  YS02001625           JUNCTION     1.45     1.78     8.38     0  03:39        1.78
  YS02163301           JUNCTION     1.52     1.91     8.43     0  03:54        1.87
  YS02163601           JUNCTION     1.64     2.02     8.41     0  03:54        1.97
  YS02164001           JUNCTION     1.58     1.95     8.41     0  03:54        1.91
  YS02001647           JUNCTION     1.43     1.76     8.37     0  04:24        1.75
  YSB1154              JUNCTION     0.23     0.42     9.48     0  02:11        0.42
  YSB6556              JUNCTION     0.12     0.31     9.48     0  02:11        0.31
  YSB1174              JUNCTION     0.18     0.37     9.48     0  02:11        0.37
  YSB1171              JUNCTION     0.38     0.57     9.48     0  02:11        0.57
  YS02006553           JUNCTION     0.69     0.96     7.25     0  02:38        0.96
  YS02006561           JUNCTION     0.14     0.28     6.94     0  02:38        0.28
  YS02006556           JUNCTION     0.67     0.93     7.24     0  02:38        0.93
  YS02006558           JUNCTION     0.71     0.98     7.24     0  02:37        0.98
  YS02001783           JUNCTION     0.25     0.71     6.85     0  03:08        0.70
  YS02001784           JUNCTION     0.28     0.78     6.85     0  03:08        0.74
  YS02001786           JUNCTION     0.24     0.76     6.79     0  03:09        0.75
  YS02001788           JUNCTION     0.18     0.80     6.77     0  03:08        0.77
  YS02001790           JUNCTION     0.23     1.52     7.16     0  03:06        1.05
  YS02001791           JUNCTION     0.18     1.27     6.74     0  03:06        1.18
  YS02001793           JUNCTION     0.24     1.79     6.62     0  03:08        1.78
  WSC                  OUTFALL      0.32     0.40     1.07     0  04:00        0.40
  JK-storage           STORAGE      1.78     5.80     6.60     0  03:07        5.80
  CC-storage           STORAGE      1.04     1.34     8.34     0  04:34        1.34
  XR-storage           STORAGE      1.87     5.76     3.76     0  07:50        5.76
  
  
  *******************
  Node Inflow Summary
  *******************
  
  -------------------------------------------------------------------------------------------------
                                  Maximum  Maximum                  Lateral       Total        Flow
                                  Lateral    Total  Time of Max      Inflow      Inflow     Balance
                                   Inflow   Inflow   Occurrence      Volume      Volume       Error
  Node                 Type           LPS      LPS  days hr:min    10^6 ltr    10^6 ltr     Percent
  -------------------------------------------------------------------------------------------------
  WS02001211           JUNCTION      7.35   389.61     0  04:08       0.207        8.18       0.102
  WS02001212           JUNCTION      0.00   391.74     0  04:08           0        8.17       0.109
  WS02001213           JUNCTION      0.00   393.80     0  04:07           0        8.17       0.131
  WS02003069           JUNCTION      0.32   958.63     0  03:58     0.00902        16.5       0.079
  WS02003072           JUNCTION      0.00   958.55     0  03:59           0        16.4       0.118
  WS02003073           JUNCTION      1.82   960.33     0  03:59      0.0514        16.5       0.123
  WS02003060           JUNCTION     16.53   958.36     0  03:58       0.466        16.5       0.076
  WS02003066           JUNCTION      0.00   556.28     0  03:57           0        7.87       0.039
  WS02003059           JUNCTION      0.00   396.90     0  04:07           0        8.16       0.239
  WS02003067           JUNCTION      0.00   556.27     0  03:57           0        7.88       0.087
  WS02004401           JUNCTION      0.00   556.82     0  03:51           0        8.06       0.207
  WS02004402           JUNCTION      0.00   556.74     0  03:52           0        8.04       0.199
  WS02004403           JUNCTION      0.00   556.68     0  03:52           0        8.02       0.186
  WS02004404           JUNCTION      0.16   556.80     0  03:53     0.00457        8.01       0.146
  WS02004406           JUNCTION      0.00   556.84     0  03:53           0        7.99       0.354
  WS02004409           JUNCTION      0.00   556.83     0  03:53           0        7.95       0.125
  WS02004410           JUNCTION      0.00   556.49     0  03:55           0        7.94       0.149
  WS02004411           JUNCTION      0.00   556.37     0  03:56           0        7.93       0.159
  WS02004412           JUNCTION      0.00   556.32     0  03:56           0        7.92       0.181
  WS02004413           JUNCTION      0.00   556.29     0  03:56           0         7.9       0.287
  WS02004405           JUNCTION      0.04   556.84     0  03:53     0.00107           8       0.215
  WS02006109           JUNCTION      1.23   563.42     0  03:43      0.0347        8.12       0.192
  WS02006110           JUNCTION      0.00   563.37     0  03:43           0         8.1       0.221
  WS02006111           JUNCTION      0.00   585.86     0  03:43           0        8.08       0.041
  WS02006112           JUNCTION     12.19   564.64     0  03:44       0.034        8.11       0.321
  WS02006113           JUNCTION      0.00   563.73     0  03:43           0        8.09       0.090
  WS02006115           JUNCTION      0.00   569.42     0  03:55           0        8.08       0.186
  WS02006116           JUNCTION      0.00   557.55     0  03:54           0        8.07       0.153
  WS02006230           JUNCTION     10.28   536.05     0  06:19        0.29        7.01       0.141
  WS02006231           JUNCTION      0.00   524.92     0  06:19           0        6.73       0.142
  WS02006232           JUNCTION      0.00   524.60     0  06:19           0        6.74       0.203
  WS02006234           JUNCTION      0.00   523.99     0  06:19           0        6.75       0.100
  WS02006235           JUNCTION      0.00   525.52     0  06:22           0        6.83       0.123
  WS02006238           JUNCTION      0.00   401.18     0  05:39           0        4.28       0.146
  WS02006240           JUNCTION      0.00   401.06     0  05:38           0        4.23       0.240
  WS02006242           JUNCTION      0.00   401.21     0  05:40           0        4.21       0.298
  WS02006243           JUNCTION      0.00   401.16     0  05:40           0        4.19       0.091
  WS02006245           JUNCTION      0.00   401.17     0  05:38           0        4.19       0.212
  WS02006247           JUNCTION      0.00   401.06     0  05:34           0         4.2       0.157
  WS02006248           JUNCTION      0.00   401.23     0  05:39           0         4.2       0.108
  WS02006249           JUNCTION      0.00   429.56     0  03:42           0        4.32       0.202
  WS02006239           JUNCTION      0.00   401.00     0  05:39           0        4.25       0.115
  WS02006251           JUNCTION      0.08   426.72     0  03:42     0.00217        4.38       0.196
  WS02006252           JUNCTION      0.00   400.00     0  03:40           0        4.14       0.013
  WS02006253           JUNCTION      1.76   145.19     0  03:41      0.0044       0.242       1.659
  WS02006256           JUNCTION      0.00   983.00     0  02:30           0         5.1       0.019
  WS02004138           JUNCTION      0.00   380.00     0  00:00           0        7.98       0.029
  WS02004139           JUNCTION      0.32   394.45     0  00:00     0.00905        7.99       0.207
  WS02004407           JUNCTION      0.00   556.83     0  03:53           0        7.96       0.058
  WS02006228           JUNCTION      0.00   562.52     0  03:43           0         8.1       0.144
  WS02006229           JUNCTION      0.00   558.16     0  03:44           0        8.11       0.157
  WS02006280           JUNCTION      0.00   284.72     0  02:12           0        1.11       0.006
  WS02006284           JUNCTION      0.10   284.71     0  02:12      0.0027        1.11       0.107
  WS02006287           JUNCTION      0.00   284.59     0  02:12           0        1.11       0.064
  WSF200               JUNCTION      0.00   556.29     0  03:57           0        7.87       0.034
  HS02004901           JUNCTION     14.96    14.96     0  02:06      0.0409      0.0411       4.466
  HS02004881           JUNCTION      6.18    56.00     0  02:11      0.0179       0.189       0.069
  HS02004876           JUNCTION     10.23    50.03     0  02:12      0.0343       0.172       0.308
  HS02004870           JUNCTION     11.09    40.03     0  02:12      0.0338       0.138       0.077
  HS02004862           JUNCTION      9.38    29.61     0  02:12      0.0395       0.104       0.162
  HS02004856           JUNCTION      8.25    20.33     0  02:12      0.0255      0.0661       2.222
  HS02004852           JUNCTION      0.00    12.56     0  02:12           0      0.0407       0.125
  HS02004848           JUNCTION     19.14    19.14     0  02:13       0.081       0.081       0.053
  HS02004842           JUNCTION      0.00     7.14     0  02:22           0      0.0534      32.219
  HS02004837           JUNCTION     24.42    30.57     0  02:11       0.238       0.278       0.292
  HS02004830           JUNCTION      0.15    30.70     0  02:11     0.00423       0.269       0.461
  HS02004824           JUNCTION     21.66    52.19     0  02:14       0.106       0.373       0.144
  HS02004817           JUNCTION      0.60    52.78     0  02:14      0.0169        0.39       4.466
  HS02004807           JUNCTION     20.75    71.97     0  02:13      0.0622       0.435       0.980
  HS02004802           JUNCTION      0.00    72.39     0  02:14           0       0.431       0.949
  HS02004799           JUNCTION     16.15   181.05     0  02:10      0.0504       0.595       0.401
  HS02004792           JUNCTION     71.01   165.17     0  02:09       0.218       0.545       0.075
  HS02004788           JUNCTION     23.67    96.00     0  02:10       0.117       0.328       0.118
  HS02004785           JUNCTION      0.15    72.70     0  02:10     0.00423       0.213       0.225
  HS02004777           JUNCTION      0.03    73.01     0  02:09    0.000846       0.213       2.486
  HS02004770           JUNCTION     59.99    74.01     0  02:08       0.175       0.214       1.465
  HS02004480           JUNCTION      0.00   213.76     0  02:11           0       0.697       0.109
  HS02004479           JUNCTION      0.00    33.40     0  02:12           0       0.115       0.641
  HS02004478           JUNCTION      0.00   284.57     0  02:12           0        1.11       0.053
  YS02001745           JUNCTION    108.11   139.95     0  03:02        1.15        1.15       0.706
  YS02001748           JUNCTION      0.04   301.88     0  02:48     0.00127        1.15       1.903
  YS02001751           JUNCTION      0.01   323.70     0  02:50     0.00031        1.13       1.972
  YS02001754           JUNCTION      0.26   182.53     0  02:58     0.00733         1.1       2.238
  YS02001762           JUNCTION      0.00   182.76     0  02:55           0        1.25       1.715
  YS02001765           JUNCTION      0.00   177.13     0  02:55           0        1.25       1.998
  YS02001767           JUNCTION      0.54   171.91     0  02:55      0.0151        1.27       2.882
  YS02001770           JUNCTION    139.63   168.76     0  02:53        1.32        1.34       2.411
  YS02001774           JUNCTION      0.00    45.63     0  02:10           0      0.0712      54.906
  YS02001779           JUNCTION      0.01    41.63     0  02:54    0.000141      0.0283     112.623
  YS02001882           JUNCTION      0.00     4.79     0  02:05           0     0.00703      34.510
  YS02001884           JUNCTION      0.00    13.65     0  02:05           0      0.0275      23.047
  YS02001759           JUNCTION    136.85   317.77     0  02:55        1.23        2.44       0.954
  YS02001887           JUNCTION    180.80   181.60     0  02:27        1.45        1.46       0.511
  YS02001890           JUNCTION      0.00   179.35     0  02:33           0        1.43       0.571
  YS02001898           JUNCTION      0.00   179.06     0  02:39           0        1.42       0.171
  YS02001901           JUNCTION      0.00   179.39     0  02:39           0        1.42       0.413
  YS02001904           JUNCTION      0.00   179.49     0  02:39           0        1.42       0.382
  YS02001907           JUNCTION      0.00   324.37     0  02:38           0        3.07       0.740
  YS02001910           JUNCTION      0.00   151.32     0  02:57           0        1.66       0.638
  YS02001915           JUNCTION     97.07   147.10     0  02:51       0.974        1.66       0.294
  YS02001918           JUNCTION      0.00    50.08     0  02:59           0       0.692       0.193
  YS02001619           JUNCTION     94.31    94.31     0  02:42       0.963       0.963       1.232
  YS02001629           JUNCTION      0.00   211.34     0  02:58           0       0.882       3.293
  YS02001641           JUNCTION      0.00   214.55     0  02:56           0        1.91       1.112
  YS02001644           JUNCTION    102.66   315.83     0  02:56         1.1        2.98       0.879
  YS02001652           JUNCTION      0.00   189.15     0  02:53           0        1.02       2.369
  YS02001655           JUNCTION      0.15   354.92     0  02:53     0.00434        1.04       2.052
  YS02001920           JUNCTION      2.87    49.33     0  03:01      0.0809       0.694       0.328
  YS02001923           JUNCTION      0.04    46.46     0  03:01     0.00106       0.614       0.058
  YS02001926           JUNCTION      0.05    46.45     0  03:01     0.00147       0.615       0.407
  YS02001929           JUNCTION     46.40    46.40     0  03:01       0.614       0.614       0.057
  YS02001658           JUNCTION      0.00   311.74     0  02:59           0        1.08       1.864
  YS02001661           JUNCTION      0.00   376.56     0  04:05           0        1.38       0.580
  YS02001664           JUNCTION    128.09   328.86     0  04:04        1.07        1.36       0.247
  YS02001622           JUNCTION      0.00   150.12     0  02:58           0       0.952       3.426
  YS02001633           JUNCTION    104.28   216.45     0  02:48        1.13        1.97       1.655
  YS02001649           JUNCTION      0.00   469.79     0  02:48           0        3.85       0.972
  YS02001757           JUNCTION      0.00   810.83     0  02:46           0        7.27       1.283
  YS02001895           JUNCTION      0.00   179.40     0  02:33           0        1.42       0.279
  YS02001625           JUNCTION      0.00   210.87     0  02:58           0       0.922       4.425
  YS02163301           JUNCTION      0.00   113.21     0  02:48           0       0.864       2.885
  YS02163601           JUNCTION      0.11   216.46     0  02:48      0.0031        1.93       1.582
  YS02164001           JUNCTION      0.00   215.32     0  02:48           0        1.91       1.074
  YS02001647           JUNCTION      0.00   316.27     0  02:56           0        2.89       0.982
  YSB1154              JUNCTION     18.19    18.19     0  02:09      0.0611      0.0622       2.376
  YSB6556              JUNCTION      0.00    18.13     0  02:11           0      0.0631       2.014
  YSB1174              JUNCTION     16.78    16.78     0  02:06      0.0444      0.0452       2.926
  YSB1171              JUNCTION      0.00    33.26     0  02:11           0       0.114       5.890
  YS02006553           JUNCTION      0.00   324.03     0  02:38           0        3.05       0.479
  YS02006561           JUNCTION      0.00   512.74     0  02:39           0        4.32       0.010
  YS02006556           JUNCTION      0.00   324.08     0  02:40           0        3.06       0.347
  YS02006558           JUNCTION    152.45   476.82     0  02:38        1.32        4.35       0.112
  YS02001783           JUNCTION      0.00   475.01     0  02:40           0        4.32       0.039
  YS02001784           JUNCTION      1.06   475.73     0  02:39      0.0299        4.35       0.061
  YS02001786           JUNCTION      0.06   475.64     0  02:39     0.00159        4.35       0.060
  YS02001788           JUNCTION      0.07   479.03     0  03:09       0.002        4.35       0.034
  YS02001790           JUNCTION      0.15   493.03     0  03:25     0.00437        4.35       0.036
  YS02001791           JUNCTION      0.00   538.58     0  03:25           0        4.35       0.019
  YS02001793           JUNCTION      0.00   566.74     0  03:25           0        4.36      -0.061
  WSC                  OUTFALL       0.00   960.26     0  04:00           0        16.5       0.000
  JK-storage           STORAGE       0.00   687.74     0  03:03           0        4.51     -17.384
  CC-storage           STORAGE       0.00   807.91     0  02:48           0        7.18       0.803
  XR-storage           STORAGE     396.27   396.27     0  02:43        7.94        8.54      -1.534
  
  
  **********************
  Node Surcharge Summary
  **********************
  
  Surcharging occurs when water rises above the top of the highest conduit.
  ---------------------------------------------------------------------
                                               Max. Height   Min. Depth
                                   Hours       Above Crown    Below Rim
  Node                 Type      Surcharged         Meters       Meters
  ---------------------------------------------------------------------
  WS02006109           JUNCTION        2.59          0.183        1.637
  WS02006110           JUNCTION        0.69          0.035        1.815
  WS02006112           JUNCTION        0.83          0.106        1.574
  WS02006230           JUNCTION        0.61          0.066        1.504
  WS02006231           JUNCTION        0.84          0.179        1.351
  WS02006232           JUNCTION        2.21          0.383        1.097
  WS02006234           JUNCTION        1.37          0.369        0.871
  WS02006235           JUNCTION        2.00          0.467        0.823
  WS02006238           JUNCTION        2.11          0.485        0.945
  WS02006240           JUNCTION        1.71          0.440        0.950
  WS02006242           JUNCTION        2.02          0.503        0.317
  WS02006243           JUNCTION        1.56          0.427        0.343
  WS02006245           JUNCTION        1.39          0.412        0.438
  WS02006247           JUNCTION        1.44          0.427        0.333
  WS02006248           JUNCTION        1.23          0.362        0.018
  WS02006249           JUNCTION        1.28          0.390        0.000
  WS02006239           JUNCTION        1.83          0.451        0.839
  WS02006251           JUNCTION        0.54          0.295        0.885
  WS02006252           JUNCTION        2.26          0.476        0.624
  WS02006253           JUNCTION        0.56          0.389        2.091
  WS02006256           JUNCTION        6.53          2.050        0.000
  WS02006228           JUNCTION        2.54          0.224        1.976
  YS02001748           JUNCTION        3.31          0.207        0.983
  YS02001751           JUNCTION        4.75          0.485        0.715
  YS02001754           JUNCTION        5.14          0.711        0.439
  YS02001762           JUNCTION        5.51          0.977        0.173
  YS02001765           JUNCTION        5.48          0.925        0.175
  YS02001767           JUNCTION        5.46          0.890        0.140
  YS02001770           JUNCTION        5.44          0.858        0.062
  YS02001774           JUNCTION        5.49          0.958        0.092
  YS02001779           JUNCTION        5.03          0.680        0.000
  YS02001759           JUNCTION        5.53          1.013        0.197
  YS02001619           JUNCTION        4.69          0.497        0.113
  YS02001629           JUNCTION        4.69          0.470        0.000
  YS02001641           JUNCTION        5.49          0.952        0.148
  YS02001644           JUNCTION        5.50          0.920        0.000
  YS02001652           JUNCTION        5.28          0.773        0.357
  YS02001655           JUNCTION        4.80          0.566        0.634
  YS02001658           JUNCTION        3.53          0.292        1.008
  YS02001622           JUNCTION        4.73          0.512        0.108
  YS02001633           JUNCTION        5.48          0.942        0.118
  YS02001649           JUNCTION        5.51          0.991        0.059
  YS02001757           JUNCTION        5.59          1.112        0.098
  YS02001625           JUNCTION        5.37          0.780        0.000
  YS02163301           JUNCTION        5.45          0.913        0.117
  YS02163601           JUNCTION        5.52          1.017        0.063
  YS02164001           JUNCTION        5.48          0.949        0.151
  YS02001647           JUNCTION        5.32          0.759        0.141
  YS02001790           JUNCTION        0.30          0.717        0.440
  YS02001791           JUNCTION        0.33          0.470        1.450
  YS02001793           JUNCTION        0.74          0.792        1.808
  
  
  *********************
  Node Flooding Summary
  *********************
  
  Flooding refers to all water that overflows a node, whether it ponds or not.
  --------------------------------------------------------------------------
                                                             Total   Maximum
                                 Maximum   Time of Max       Flood    Ponded
                        Hours       Rate    Occurrence      Volume     Depth
  Node                 Flooded       LPS   days hr:min    10^6 ltr    Meters
  --------------------------------------------------------------------------
  WS02006249              0.51    117.02      0  03:42       0.116     0.000
  WS02006256              2.09    789.41      0  04:40       2.481     0.000
  YS02001779              0.15     10.34      0  04:38       0.001     0.000
  YS02001629              0.01     11.35      0  03:54       0.000     0.000
  YS02001644              0.56     92.07      0  04:35       0.055     0.000
  YS02001625              0.11     21.43      0  03:40       0.003     0.000
  JK-storage              0.23    474.36      0  03:09       0.213     0.000
  
  
  **********************
  Storage Volume Summary
  **********************
  
  --------------------------------------------------------------------------------------------------
                         Average     Avg  Evap Exfil       Maximum     Max    Time of Max    Maximum
                          Volume    Pcnt  Pcnt  Pcnt        Volume    Pcnt     Occurrence    Outflow
  Storage Unit           1000 m3    Full  Loss  Loss       1000 m3    Full    days hr:min        LPS
  --------------------------------------------------------------------------------------------------
  JK-storage               0.090      31     0     0         0.291     100       0  03:07     983.00
  CC-storage               2.904      19     0     0         3.747      24       0  04:34     400.00
  XR-storage               0.224      24     0     0         0.691      75       0  07:50     380.00
  
  
  ***********************
  Outfall Loading Summary
  ***********************
  
  ---------------------------------------------------------------------------------------------------------------------------------
                         Flow       Avg       Max       Total         Total         Total         Total         Total         Total
                         Freq      Flow      Flow      Volume           COD            SS            TN            TP         NH4-N
  Outfall Node           Pcnt       LPS       LPS    10^6 ltr            kg            kg            kg            kg            kg
  ---------------------------------------------------------------------------------------------------------------------------------
  WSC                  100.00    658.30    960.26      16.461      1931.210      3160.781       149.307        18.096        91.823
  ---------------------------------------------------------------------------------------------------------------------------------
  System               100.00    658.30    960.26      16.461      1931.210      3160.781       149.307        18.096        91.823
  
  
  ********************
  Link Flow Summary
  ********************
  
  -----------------------------------------------------------------------------
                                 Maximum  Time of Max   Maximum    Max/    Max/
                                  |Flow|   Occurrence   |Veloc|    Full    Full
  Link                 Type          LPS  days hr:min     m/sec    Flow   Depth
  -----------------------------------------------------------------------------
  WS02003066WSF200     CONDUIT    556.29     0  03:57      2.86    0.09    0.23
  WS02006287WS02006284 CONDUIT    284.61     0  02:12      1.81    0.13    0.25
  WS02006284WS02006280 CONDUIT    284.72     0  02:12      2.05    0.12    0.23
  WS02006280WS02006229 CONDUIT    284.73     0  02:12      3.30    0.06    0.17
  WS02006229WS02006228 CONDUIT    562.52     0  03:43      1.12    1.86    1.00
  WS02006256WS02006235 CONDUIT    259.49     0  00:18      3.67    2.75    1.00
  WS02006253WS02006251 CONDUIT    140.50     0  03:41      0.55    0.42    1.00
  WS02006252WS02006251 CONDUIT    403.22     0  03:42      3.21    1.48    1.00
  WS02006251WS02006249 CONDUIT    429.56     0  03:42      1.12    1.24    1.00
  WS02006249WS02006248 CONDUIT    401.23     0  05:39      1.13    2.20    1.00
  WS02006248WS02006247 CONDUIT    401.06     0  05:34      1.10    0.87    1.00
  WS02006247WS02006245 CONDUIT    401.17     0  05:38      1.07    3.18    1.00
  WS02006245WS02006243 CONDUIT    401.16     0  05:40      1.09    1.19    1.00
  WS02006243WS02006242 CONDUIT    401.21     0  05:40      1.04    0.86    1.00
  WS02006242WS02006240 CONDUIT    401.06     0  05:38      1.04    1.59    1.00
  WS02006240WS02006239 CONDUIT    401.00     0  05:39      1.04    1.26    1.00
  WS02006239WS02006238 CONDUIT    401.18     0  05:39      1.04    1.28    1.00
  WS02006238WS02006235 CONDUIT    402.50     0  05:39      1.05    0.90    1.00
  WS02006235WS02006234 CONDUIT    523.99     0  06:19      1.36    5.53    1.00
  WS02006234WS02006232 CONDUIT    524.60     0  06:19      1.36    1.06    1.00
  WS02006232WS02006231 CONDUIT    524.92     0  06:19      1.36    1.10    1.00
  WS02006231WS02006230 CONDUIT    525.77     0  06:19      1.37    7.98    1.00
  WS02006230WS02006229 CONDUIT    537.92     0  06:19      1.40   11.97    1.00
  WS02006228WS02006109 CONDUIT    562.19     0  03:43      1.12    2.46    1.00
  WS02006116WS02004401 CONDUIT    556.82     0  03:51      0.96    0.77    0.86
  WS02006115WS02006116 CONDUIT    557.55     0  03:54      1.05    0.72    0.78
  WS02006113WS02006111 CONDUIT    585.86     0  03:43      2.50    0.70    0.47
  WS02006112WS02006115 CONDUIT    569.42     0  03:55      0.80    0.34    0.88
  WS02006111WS02006112 CONDUIT    564.27     0  03:44      1.56    0.27    0.68
  WS02006110WS02006113 CONDUIT    563.73     0  03:43      1.33    0.51    0.79
  WS02006109WS02006110 CONDUIT    563.37     0  03:43      1.12    1.08    1.00
  WS02004411WS02004412 CONDUIT    556.32     0  03:56      0.94    0.79    0.71
  WS02004401WS02004402 CONDUIT    556.74     0  03:52      0.96    0.67    0.88
  WS02004413WS02003067 CONDUIT    556.27     0  03:57      1.13    0.24    0.60
  WS02004412WS02004413 CONDUIT    556.29     0  03:56      0.84    0.37    0.79
  WS02004410WS02004411 CONDUIT    556.37     0  03:56      0.95    0.76    0.70
  WS02004409WS02004410 CONDUIT    556.49     0  03:55      0.98    0.72    0.69
  WS02004407WS02004409 CONDUIT    556.83     0  03:53      1.49    0.20    0.49
  WS02004406WS02004407 CONDUIT    556.83     0  03:53      1.06    0.25    0.63
  WS02004405WS02004406 CONDUIT    556.84     0  03:53      0.96    1.10    0.97
  WS02004404WS02004405 CONDUIT    556.80     0  03:53      1.13    5.46    0.97
  WS02004403WS02004404 CONDUIT    556.64     0  03:53      0.97    0.40    0.94
  WS02004402WS02004403 CONDUIT    556.68     0  03:52      0.99    0.80    0.90
  WS02004139WS02001211 CONDUIT    382.26     0  04:08      0.90    0.48    0.60
  WS02004138WS02004139 CONDUIT    394.13     0  00:00      3.62    0.08    0.44
  WS02003067WS02003066 CONDUIT    556.28     0  03:57      1.23    0.18    0.42
  WS02001213WS02003059 CONDUIT    396.90     0  04:07      0.89    0.65    0.78
  WS02001212WS02001213 CONDUIT    393.80     0  04:07      1.32    0.61    0.48
  WS02001211WS02001212 CONDUIT    391.74     0  04:08      0.78    0.30    0.65
  WS02003072WS02003073 CONDUIT    958.51     0  03:59      1.74    2.07    0.49
  WS02003069WS02003072 CONDUIT    958.55     0  03:59      1.63    0.46    0.52
  WS02003060WS02003069 CONDUIT    958.31     0  03:58      1.87    0.38    0.46
  WS02003059WS02003060 CONDUIT    400.75     0  04:06      0.95    0.26    0.67
  HS02004901HS02004770 CONDUIT     14.25     0  02:08      0.06    0.05    0.36
  HS02004876HS02004881 CONDUIT     50.21     0  02:12      0.74    0.53    0.10
  HS02004870HS02004876 CONDUIT     40.00     0  02:12      0.51    0.03    0.11
  HS02004842HS02004848 CONDUIT      7.14     0  02:22      0.04    0.00    0.29
  HS02004837HS02004842 CONDUIT      7.43     0  02:22      0.42    0.00    0.30
  HS02004830HS02004837 CONDUIT     30.55     0  02:11      0.49    0.03    0.09
  HS02004824HS02004830 CONDUIT     30.69     0  02:12      0.53    0.04    0.08
  HS02004817HS02004824 CONDUIT     52.18     0  02:14      0.17    0.02    0.43
  HS02004770HS02004777 CONDUIT     72.98     0  02:09      0.28    0.13    0.37
  HS02004799HS02004480 CONDUIT    180.77     0  02:10      0.70    0.23    0.37
  HS02004792HS02004799 CONDUIT    165.07     0  02:10      0.80    0.10    0.30
  HS02004788HS02004792 CONDUIT     95.92     0  02:11      0.93    0.06    0.15
  HS02004785HS02004788 CONDUIT     72.60     0  02:10      0.60    0.55    0.17
  HS02004777HS02004785 CONDUIT     72.55     0  02:10      0.34    0.09    0.31
  HS02004480HS02004478 CONDUIT    213.74     0  02:11      1.10    0.90    0.28
  HS02004479HS02004480 CONDUIT     33.69     0  02:12      0.18    0.03    0.36
  HS02004862HS02004870 CONDUIT     29.57     0  02:13      0.54    0.03    0.08
  HS02004848HS02004852 CONDUIT     12.56     0  02:12      0.37    0.01    0.05
  HS02004856HS02004862 CONDUIT     20.28     0  02:12      0.40    0.02    0.07
  HS02004852HS02004856 CONDUIT     12.51     0  02:13      0.17    0.01    0.11
  HS02004802HS02004478 CONDUIT     72.96     0  02:15      0.36    0.06    0.30
  HS02004478WS02006287 CONDUIT    284.59     0  02:12      1.51    0.08    0.21
  HS02004817HS02004807 CONDUIT     53.53     0  02:16      0.14    0.03    0.56
  HS02004807HS02004802 CONDUIT     72.39     0  02:14      0.30    0.14    0.35
  YS02001759YS02001757 CONDUIT    321.55     0  02:55      0.41    0.23    1.00
  YS02001762YS02001759 CONDUIT    188.28     0  02:55      0.24    0.22    1.00
  YS02001765YS02001762 CONDUIT    182.76     0  02:55      0.25    0.17    1.00
  YS02001770YS02001767 CONDUIT    171.38     0  02:55      0.29    0.68    1.00
  YS02001774YS02001770 CONDUIT     45.63     0  02:10      0.14    0.03    1.00
  YS02001779YS02001774 CONDUIT     41.62     0  02:54      0.07    0.02    1.00
  YS02001649YS02001757 CONDUIT    469.40     0  02:48      0.60    0.28    1.00
  YS02001767YS02001765 CONDUIT    177.13     0  02:55      0.27    0.22    1.00
  YS02006561YS02001783 CONDUIT    475.01     0  02:40      1.97    0.25    0.60
  YS02001783YS02001784 CONDUIT    474.67     0  02:39      1.41    0.65    0.91
  YS02001784YS02001785 CONDUIT    475.58     0  02:39      1.52    1.11    0.95
  YS02001788YS02001790 CONDUIT    492.87     0  03:25      2.07    0.36    1.00
  YS02001790YS02001791 CONDUIT    538.58     0  03:25      2.44    0.59    1.00
  YS02001791YS02001793 CONDUIT    566.74     0  03:25      4.97    0.24    1.00
  YS02001910YS02001907 CONDUIT    149.51     0  02:52      0.49    0.08    0.85
  YS02001786YS02001788 CONDUIT    478.96     0  03:09      1.97    0.92    0.96
  YS02001915YS02001910 CONDUIT    151.32     0  02:57      0.46    0.08    0.64
  YS02001918YS02001915 CONDUIT     52.67     0  02:58      0.44    0.03    0.36
  YS02001923YS02001920 CONDUIT     46.46     0  03:01      0.52    0.02    0.18
  YS02001926YS02001923 CONDUIT     46.42     0  03:01      0.57    0.07    0.16
  YS02001929YS02001926 CONDUIT     46.40     0  03:01      0.62    0.02    0.15
  YS02001920YS02001918 CONDUIT     50.08     0  02:59      0.52    0.05    0.22
  YS02001629YS02163301 CONDUIT    113.21     0  02:48      0.14    0.14    1.00
  YS02001619YS02001622 CONDUIT    150.12     0  02:58      0.69    0.22    1.00
  YS02001622YS02001625 CONDUIT    210.87     0  02:58      0.29    0.11    1.00
  YS02001625YS02001629 CONDUIT    211.34     0  02:58      0.28    0.10    1.00
  YS02163301YS02001633 CONDUIT    112.24     0  02:48      0.14    0.11    1.00
  YS02163601YS02164001 CONDUIT    215.32     0  02:48      0.27    0.19    1.00
  YS02164001YS02001641 CONDUIT    214.55     0  02:56      0.27    0.29    1.00
  YS02001641YS02001644 CONDUIT    214.38     0  02:56      0.27    0.69    1.00
  YS02001647YS02001649 CONDUIT    317.39     0  02:56      0.40    0.17    1.00
  YS02006553YS02006556 CONDUIT    324.08     0  02:40      0.43    0.28    0.93
  YS02006556YS02006558 CONDUIT    325.22     0  02:38      0.42    0.26    0.95
  YSB6556YSB1171       CONDUIT     18.40     0  02:13      0.07    0.02    0.63
  YS02001907YS02006553 CONDUIT    324.03     0  02:38      0.36    0.38    1.00
  YS02006558YS02006561 CONDUIT    512.74     0  02:39      2.76    1.13    0.63
  YS02001633YS02163601 CONDUIT    216.35     0  02:48      0.28    0.23    1.00
  YS02001644YS02001647 CONDUIT    316.27     0  02:56      0.40    0.19    1.00
  YS02001745YS02001748 CONDUIT    239.96     0  02:55      1.54    0.09    0.92
  YS02001748YS02001751 CONDUIT    323.69     0  02:50      1.17    0.16    1.00
  YS02001751YS02001754 CONDUIT    182.27     0  02:58      0.90    0.09    1.00
  YS02001754YS02001757 CONDUIT    180.20     0  02:58      0.33    0.07    1.00
  YS02001882YS02001884 CONDUIT      4.79     0  02:05      0.07    0.01    0.58
  YS02001884YS02001887 CONDUIT     13.65     0  02:05      0.05    0.02    0.67
  YS02001890YS02001895 CONDUIT    179.40     0  02:33      0.35    0.08    0.64
  YS02001895YS02001898 CONDUIT    179.06     0  02:39      0.47    0.31    0.50
  YS02001898YS02001901 CONDUIT    179.39     0  02:39      0.39    0.12    0.58
  YS02001901YS02001904 CONDUIT    179.49     0  02:39      0.35    0.28    0.63
  YS02001904YS02001907 CONDUIT    179.61     0  02:38      0.27    0.06    0.79
  YS02001887YS02001890 CONDUIT    179.35     0  02:33      0.30    0.31    0.72
  YS02001652YS02001649 CONDUIT    183.68     0  02:48      0.39    0.09    1.00
  YS02001655YS02001652 CONDUIT    189.15     0  02:53      0.93    0.09    1.00
  YS02001658YS02001655 CONDUIT    354.77     0  02:53      1.35    0.15    1.00
  YS02001661YS02001658 CONDUIT    311.74     0  02:59      1.60    0.12    0.99
  YS02001664YS02001661 CONDUIT    376.56     0  04:05      1.34    0.12    0.70
  YSB1154YSB6556       CONDUIT     18.13     0  02:11      0.19    0.03    0.52
  YSB1174YSB1171       CONDUIT     15.91     0  02:07      0.06    0.02    0.63
  YSB1171HS02004479    CONDUIT     33.40     0  02:12      0.54    0.02    0.49
  HS02004881HS02006253 CONDUIT     55.99     0  02:11      1.91    0.01    0.50
  YS02001793JiankangQianchi CONDUIT    687.74     0  03:03     15.08    0.05    1.00
  YS02001757CaochengTiaoxuchi CONDUIT    807.91     0  02:48      1.56    0.35    1.00
  WSF200WS02003060     CONDUIT    556.34     0  03:57      2.06    0.12    0.35
  1                    CONDUIT    960.26     0  04:00      3.29    0.33    0.40
  CC-Pump-1            PUMP       200.00     0  03:40              1.00
  CC-Pump-2            PUMP       200.00     0  03:40              1.00
  JK-Pump-1            PUMP       300.00     0  02:30              1.00
  JK-Pump-2            PUMP       683.00     0  02:30              1.00
  XR-Pump-1            PUMP        95.00     0  00:00              1.00
  XR-Pump-2            PUMP        95.00     0  00:00              1.00
  XR-Pump-3            PUMP        95.00     0  00:00              1.00
  XR-Pump-4            PUMP        95.00     0  00:00              1.00
  
  
  ***************************
  Flow Classification Summary
  ***************************
  
  -------------------------------------------------------------------------------------
                      Adjusted    ---------- Fraction of Time in Flow Class ---------- 
                       /Actual         Up    Down  Sub   Sup   Up    Down  Norm  Inlet 
  Conduit               Length    Dry  Dry   Dry   Crit  Crit  Crit  Crit  Ltd   Ctrl  
  -------------------------------------------------------------------------------------
  WS02003066WSF200        1.00   0.00  0.02  0.00  0.00  0.97  0.00  0.00  0.79  0.00
  WS02006287WS02006284    1.00   0.03  0.02  0.00  0.79  0.16  0.00  0.00  0.77  0.00
  WS02006284WS02006280    1.00   0.04  0.00  0.00  0.00  0.00  0.00  0.96  0.00  0.00
  WS02006280WS02006229    1.00   0.04  0.00  0.00  0.00  0.00  0.00  0.96  0.00  0.00
  WS02006229WS02006228    1.00   0.00  0.00  0.00  1.00  0.00  0.00  0.00  0.00  0.00
  WS02006256WS02006235    1.00   0.01  0.00  0.00  0.99  0.00  0.00  0.00  0.00  0.00
  WS02006253WS02006251    1.00   0.01  0.02  0.00  0.96  0.00  0.00  0.00  0.00  0.00
  WS02006252WS02006251    1.00   0.18  0.00  0.00  0.05  0.00  0.77  0.00  0.00  0.00
  WS02006251WS02006249    1.00   0.00  0.00  0.00  1.00  0.00  0.00  0.00  0.32  0.00
  WS02006249WS02006248    1.00   0.00  0.00  0.00  0.89  0.00  0.10  0.00  0.00  0.00
  WS02006248WS02006247    1.00   0.00  0.00  0.00  0.99  0.00  0.00  0.01  0.19  0.00
  WS02006247WS02006245    1.00   0.01  0.00  0.00  0.99  0.00  0.00  0.01  0.00  0.00
  WS02006245WS02006243    1.00   0.01  0.00  0.00  0.94  0.00  0.00  0.05  0.01  0.00
  WS02006243WS02006242    1.00   0.01  0.00  0.00  0.99  0.00  0.00  0.00  0.27  0.00
  WS02006242WS02006240    1.00   0.01  0.00  0.00  0.99  0.00  0.00  0.00  0.00  0.00
  WS02006240WS02006239    1.00   0.01  0.00  0.00  0.94  0.00  0.00  0.05  0.01  0.00
  WS02006239WS02006238    1.00   0.01  0.00  0.00  0.99  0.00  0.00  0.00  0.15  0.00
  WS02006238WS02006235    1.00   0.01  0.00  0.00  0.99  0.00  0.00  0.00  0.00  0.00
  WS02006235WS02006234    1.00   0.01  0.00  0.00  0.95  0.00  0.04  0.00  0.00  0.00
  WS02006234WS02006232    1.00   0.01  0.00  0.00  0.99  0.00  0.00  0.00  0.11  0.00
  WS02006232WS02006231    1.00   0.01  0.00  0.00  0.99  0.00  0.00  0.00  0.00  0.00
  WS02006231WS02006230    1.00   0.01  0.00  0.00  0.69  0.00  0.30  0.00  0.00  0.00
  WS02006230WS02006229    1.00   0.00  0.00  0.00  0.99  0.00  0.00  0.01  0.00  0.00
  WS02006228WS02006109    1.00   0.00  0.00  0.00  1.00  0.00  0.00  0.00  0.00  0.00
  WS02006116WS02004401    1.00   0.01  0.00  0.00  0.99  0.00  0.00  0.00  0.00  0.00
  WS02006115WS02006116    1.00   0.01  0.00  0.00  0.98  0.00  0.00  0.00  0.00  0.00
  WS02006113WS02006111    1.00   0.01  0.00  0.00  0.00  0.99  0.00  0.00  0.18  0.00
  WS02006112WS02006115    1.00   0.01  0.00  0.00  0.98  0.00  0.00  0.00  0.00  0.00
  WS02006111WS02006112    1.00   0.01  0.00  0.00  0.99  0.00  0.00  0.00  0.95  0.00
  WS02006110WS02006113    1.00   0.00  0.01  0.00  0.99  0.00  0.00  0.00  0.00  0.00
  WS02006109WS02006110    1.00   0.00  0.00  0.00  0.99  0.00  0.00  0.00  0.00  0.00
  WS02004411WS02004412    1.00   0.02  0.00  0.00  0.98  0.00  0.00  0.00  0.00  0.00
  WS02004401WS02004402    1.00   0.01  0.00  0.00  0.98  0.00  0.00  0.00  0.00  0.00
  WS02004413WS02003067    1.00   0.02  0.00  0.00  0.00  0.00  0.97  0.00  0.00  0.00
  WS02004412WS02004413    1.00   0.02  0.00  0.00  0.98  0.00  0.00  0.00  0.00  0.00
  WS02004410WS02004411    1.00   0.02  0.00  0.00  0.98  0.00  0.00  0.00  0.00  0.00
  WS02004409WS02004410    1.00   0.02  0.00  0.00  0.98  0.00  0.00  0.00  0.00  0.00
  WS02004407WS02004409    1.00   0.02  0.00  0.00  0.98  0.00  0.00  0.00  0.93  0.00
  WS02004406WS02004407    1.00   0.00  0.02  0.00  0.98  0.00  0.00  0.00  0.00  0.00
  WS02004405WS02004406    1.00   0.00  0.00  0.00  1.00  0.00  0.00  0.00  0.02  0.00
  WS02004404WS02004405    1.00   0.00  0.00  0.00  1.00  0.00  0.00  0.00  0.00  0.00
  WS02004403WS02004404    1.00   0.00  0.02  0.00  0.98  0.00  0.00  0.00  0.00  0.00
  WS02004402WS02004403    1.00   0.02  0.00  0.00  0.98  0.00  0.00  0.00  0.00  0.00
  WS02004139WS02001211    1.00   0.00  0.00  0.00  1.00  0.00  0.00  0.00  0.00  0.00
  WS02004138WS02004139    1.00   0.00  0.04  0.00  0.96  0.00  0.00  0.00  1.00  0.00
  WS02003067WS02003066    1.00   0.03  0.00  0.00  0.97  0.00  0.00  0.00  0.00  0.00
  WS02001213WS02003059    1.00   0.00  0.00  0.00  1.00  0.00  0.00  0.00  0.00  0.00
  WS02001212WS02001213    1.00   0.00  0.00  0.00  0.92  0.00  0.08  0.00  0.00  0.00
  WS02001211WS02001212    1.00   0.00  0.00  0.00  1.00  0.00  0.00  0.00  0.00  0.00
  WS02003072WS02003073    1.00   0.00  0.00  0.00  0.00  0.00  0.00  1.00  0.00  0.00
  WS02003069WS02003072    1.00   0.00  0.00  0.00  1.00  0.00  0.00  0.00  0.19  0.00
  WS02003060WS02003069    1.00   0.00  0.00  0.00  0.99  0.01  0.00  0.00  0.15  0.00
  WS02003059WS02003060    1.00   0.00  0.00  0.00  1.00  0.00  0.00  0.00  0.00  0.00
  HS02004901HS02004770    1.00   0.04  0.00  0.00  0.96  0.00  0.00  0.00  0.01  0.00
  HS02004876HS02004881    1.00   0.00  0.00  0.00  1.00  0.00  0.00  0.00  0.00  0.00
  HS02004870HS02004876    1.00   0.00  0.00  0.00  1.00  0.00  0.00  0.00  0.95  0.00
  HS02004842HS02004848    1.00   0.00  0.04  0.00  0.96  0.00  0.00  0.00  0.65  0.00
  HS02004837HS02004842    1.00   0.00  0.00  0.00  1.00  0.00  0.00  0.00  0.11  0.00
  HS02004830HS02004837    1.00   0.00  0.00  0.00  1.00  0.00  0.00  0.00  0.99  0.00
  HS02004824HS02004830    1.00   0.00  0.00  0.00  1.00  0.00  0.00  0.00  0.00  0.00
  HS02004817HS02004824    1.00   0.00  0.00  0.00  1.00  0.00  0.00  0.00  1.00  0.00
  HS02004770HS02004777    1.00   0.00  0.04  0.00  0.96  0.00  0.00  0.00  0.05  0.00
  HS02004799HS02004480    1.00   0.00  0.01  0.00  0.95  0.00  0.04  0.00  0.00  0.00
  HS02004792HS02004799    1.00   0.00  0.00  0.00  1.00  0.00  0.00  0.00  0.98  0.00
  HS02004788HS02004792    1.00   0.00  0.00  0.00  1.00  0.00  0.00  0.00  0.98  0.00
  HS02004785HS02004788    1.00   0.00  0.00  0.00  1.00  0.00  0.00  0.00  0.00  0.00
  HS02004777HS02004785    1.00   0.00  0.00  0.00  1.00  0.00  0.00  0.00  0.17  0.00
  HS02004480HS02004478    1.00   0.04  0.00  0.00  0.83  0.00  0.00  0.13  0.00  0.00
  HS02004479HS02004480    1.00   0.01  0.00  0.00  0.99  0.00  0.00  0.00  0.14  0.00
  HS02004862HS02004870    1.00   0.00  0.00  0.00  1.00  0.00  0.00  0.00  0.05  0.00
  HS02004848HS02004852    1.00   0.04  0.00  0.00  0.96  0.00  0.00  0.00  0.72  0.00
  HS02004856HS02004862    1.00   0.00  0.06  0.00  0.94  0.00  0.00  0.00  0.78  0.00
  HS02004852HS02004856    1.00   0.04  0.01  0.00  0.96  0.00  0.00  0.00  0.84  0.00
  HS02004802HS02004478    1.00   0.04  0.00  0.00  0.96  0.00  0.00  0.00  0.02  0.00
  HS02004478WS02006287    1.00   0.05  0.00  0.00  0.89  0.06  0.00  0.00  0.75  0.00
  HS02004817HS02004807    1.00   0.00  0.04  0.00  0.96  0.00  0.00  0.00  0.00  0.00
  HS02004807HS02004802    1.00   0.04  0.00  0.00  0.96  0.00  0.00  0.00  0.01  0.00
  YS02001759YS02001757    1.00   0.00  0.00  0.00  1.00  0.00  0.00  0.00  0.18  0.00
  YS02001762YS02001759    1.00   0.00  0.00  0.00  1.00  0.00  0.00  0.00  0.04  0.00
  YS02001765YS02001762    1.00   0.00  0.00  0.00  1.00  0.00  0.00  0.00  0.19  0.00
  YS02001770YS02001767    1.00   0.00  0.00  0.00  1.00  0.00  0.00  0.00  0.00  0.00
  YS02001774YS02001770    1.00   0.00  0.04  0.00  0.96  0.00  0.00  0.00  0.05  0.00
  YS02001779YS02001774    1.00   0.00  0.00  0.00  1.00  0.00  0.00  0.00  0.24  0.00
  YS02001649YS02001757    1.00   0.00  0.00  0.00  1.00  0.00  0.00  0.00  0.18  0.00
  YS02001767YS02001765    1.00   0.00  0.00  0.00  1.00  0.00  0.00  0.00  0.01  0.00
  YS02006561YS02001783    1.00   0.06  0.00  0.00  0.02  0.92  0.00  0.00  0.65  0.00
  YS02001783YS02001784    1.00   0.00  0.06  0.00  0.94  0.00  0.00  0.00  0.01  0.00
  YS02001784YS02001785    1.00   0.00  0.00  0.00  1.00  0.00  0.00  0.00  0.23  0.00
  YS02001788YS02001790    1.00   0.00  0.00  0.00  0.13  0.87  0.00  0.00  0.68  0.00
  YS02001790YS02001791    1.00   0.00  0.00  0.00  0.11  0.89  0.00  0.00  0.55  0.00
  YS02001791YS02001793    1.00   0.00  0.00  0.00  0.17  0.83  0.00  0.00  0.05  0.00
  YS02001910YS02001907    1.00   0.00  0.00  0.00  0.99  0.00  0.00  0.01  0.13  0.00
  YS02001786YS02001788    1.00   0.00  0.00  0.00  0.09  0.91  0.00  0.00  0.00  0.00
  YS02001915YS02001910    1.00   0.00  0.00  0.00  1.00  0.00  0.00  0.00  0.21  0.00
  YS02001918YS02001915    1.00   0.00  0.00  0.00  0.99  0.00  0.00  0.00  0.69  0.00
  YS02001923YS02001920    1.00   0.00  0.00  0.00  1.00  0.00  0.00  0.00  1.00  0.00
  YS02001926YS02001923    1.00   0.00  0.02  0.00  0.00  0.00  0.98  0.00  0.00  0.00
  YS02001929YS02001926    1.00   0.00  0.04  0.00  0.96  0.00  0.00  0.00  0.87  0.00
  YS02001920YS02001918    1.00   0.00  0.00  0.00  1.00  0.00  0.00  0.00  0.00  0.00
  YS02001629YS02163301    1.00   0.05  0.00  0.00  0.94  0.00  0.00  0.00  0.00  0.00
  YS02001619YS02001622    1.00   0.04  0.00  0.00  0.96  0.00  0.00  0.00  0.00  0.00
  YS02001622YS02001625    1.00   0.04  0.00  0.00  0.96  0.00  0.00  0.00  0.10  0.00
  YS02001625YS02001629    1.00   0.04  0.03  0.00  0.92  0.00  0.02  0.00  0.00  0.00
  YS02163301YS02001633    1.00   0.00  0.05  0.00  0.95  0.00  0.00  0.00  0.00  0.00
  YS02163601YS02164001    1.00   0.00  0.03  0.00  0.97  0.00  0.00  0.00  0.00  0.00
  YS02164001YS02001641    1.00   0.00  0.02  0.00  0.97  0.00  0.00  0.00  0.07  0.00
  YS02001641YS02001644    1.00   0.00  0.00  0.00  1.00  0.00  0.00  0.00  0.00  0.00
  YS02001647YS02001649    1.00   0.00  0.06  0.00  0.94  0.00  0.00  0.00  0.01  0.00
  YS02006553YS02006556    1.00   0.00  0.00  0.00  1.00  0.00  0.00  0.00  0.03  0.00
  YS02006556YS02006558    1.00   0.00  0.00  0.00  1.00  0.00  0.00  0.00  0.00  0.00
  YSB6556YSB1171          1.00   0.01  0.02  0.00  0.96  0.00  0.00  0.00  0.00  0.00
  YS02001907YS02006553    1.00   0.00  0.01  0.00  0.99  0.00  0.00  0.00  0.00  0.00
  YS02006558YS02006561    1.00   0.06  0.00  0.00  0.00  0.94  0.00  0.00  0.67  0.00
  YS02001633YS02163601    1.00   0.00  0.00  0.00  1.00  0.00  0.00  0.00  0.18  0.00
  YS02001644YS02001647    1.00   0.00  0.06  0.00  0.94  0.00  0.00  0.00  0.00  0.00
  YS02001745YS02001748    1.00   0.00  0.00  0.00  0.90  0.00  0.00  0.09  0.06  0.00
  YS02001748YS02001751    1.00   0.00  0.00  0.00  0.97  0.03  0.00  0.00  0.17  0.00
  YS02001751YS02001754    1.00   0.00  0.00  0.00  0.93  0.00  0.00  0.07  0.02  0.00
  YS02001754YS02001757    1.00   0.00  0.00  0.00  1.00  0.00  0.00  0.00  0.24  0.00
  YS02001882YS02001884    1.00   0.05  0.00  0.00  0.95  0.00  0.00  0.00  0.00  0.00
  YS02001884YS02001887    1.00   0.02  0.01  0.00  0.97  0.00  0.00  0.00  0.00  0.00
  YS02001890YS02001895    1.00   0.00  0.05  0.00  0.94  0.00  0.00  0.00  0.00  0.00
  YS02001895YS02001898    1.00   0.06  0.00  0.00  0.93  0.00  0.01  0.00  0.00  0.00
  YS02001898YS02001901    1.00   0.05  0.00  0.00  0.94  0.00  0.00  0.00  0.02  0.00
  YS02001901YS02001904    1.00   0.05  0.00  0.00  0.95  0.00  0.00  0.00  0.00  0.00
  YS02001904YS02001907    1.00   0.00  0.05  0.00  0.95  0.00  0.00  0.00  0.00  0.00
  YS02001887YS02001890    1.00   0.00  0.00  0.00  0.99  0.00  0.01  0.00  0.00  0.00
  YS02001652YS02001649    1.00   0.00  0.00  0.00  1.00  0.00  0.00  0.00  0.22  0.00
  YS02001655YS02001652    1.00   0.00  0.00  0.00  0.93  0.00  0.00  0.07  0.02  0.00
  YS02001658YS02001655    1.00   0.00  0.05  0.00  0.92  0.04  0.00  0.00  0.08  0.00
  YS02001661YS02001658    1.00   0.05  0.00  0.00  0.90  0.05  0.00  0.00  0.06  0.00
  YS02001664YS02001661    1.00   0.04  0.00  0.00  0.91  0.06  0.00  0.00  0.29  0.00
  YSB1154YSB6556          1.00   0.04  0.00  0.00  0.96  0.00  0.00  0.00  0.02  0.00
  YSB1174YSB1171          1.00   0.02  0.01  0.00  0.97  0.00  0.00  0.00  0.00  0.00
  YSB1171HS02004479       1.00   0.01  0.00  0.00  0.98  0.00  0.00  0.01  0.12  0.00
  HS02004881HS02006253    1.00   0.02  0.00  0.00  0.76  0.00  0.00  0.22  0.51  0.00
  YS02001793JiankangQianchi    1.00   0.00  0.00  0.00  0.61  0.39  0.00  0.00  0.56  0.00
  YS02001757CaochengTiaoxuchi    1.00   0.00  0.08  0.00  0.92  0.00  0.00  0.00  0.00  0.00
  WSF200WS02003060        1.00   0.00  0.00  0.00  0.75  0.25  0.00  0.00  0.43  0.00
  1                       1.00   0.00  0.00  0.00  0.00  1.00  0.00  0.00  0.45  0.00
  
  
  *************************
  Conduit Surcharge Summary
  *************************
  
  ----------------------------------------------------------------------------
                                                           Hours        Hours 
                         --------- Hours Full --------   Above Full   Capacity
  Conduit                Both Ends  Upstream  Dnstream   Normal Flow   Limited
  ----------------------------------------------------------------------------
  WS02006229WS02006228        2.54      2.65      2.54      4.54         2.54
  WS02006256WS02006235        5.48      5.48      6.53      3.43         0.01
  WS02006253WS02006251        1.24      1.24      1.28      0.01         0.01
  WS02006252WS02006251        1.31      1.31      2.26      1.99         0.01
  WS02006251WS02006249        1.25      1.25      1.28      1.15         0.82
  WS02006249WS02006248        1.23      1.23      1.28      3.79         0.01
  WS02006248WS02006247        1.27      1.27      1.44      0.01         0.01
  WS02006247WS02006245        1.39      1.49      1.39      3.96         1.39
  WS02006245WS02006243        1.44      1.45      1.56      0.69         0.52
  WS02006243WS02006242        1.62      1.62      2.02      0.01         0.01
  WS02006242WS02006240        1.71      1.71      2.18      2.29         0.01
  WS02006240WS02006239        1.73      1.76      1.83      1.42         0.77
  WS02006239WS02006238        2.05      2.09      2.11      1.51         0.95
  WS02006238WS02006235        2.05      2.05      2.19      0.01         0.01
  WS02006235WS02006234        1.37      1.37      2.00      5.41         0.01
  WS02006234WS02006232        1.83      1.83      2.21      0.69         0.67
  WS02006232WS02006231        0.84      0.84      2.21      0.78         0.01
  WS02006231WS02006230        0.61      0.61      0.87      5.59         0.01
  WS02006230WS02006229        3.42      4.01      3.42      5.90         3.42
  WS02006228WS02006109        2.59      3.05      2.59      5.12         2.59
  WS02006112WS02006115        0.01      0.01      0.83      0.01         0.01
  WS02006111WS02006112        0.01      0.01      4.69      0.01         0.01
  WS02006110WS02006113        0.01      0.01      2.73      0.01         0.01
  WS02006109WS02006110        0.69      0.69      3.05      0.70         0.01
  WS02004405WS02004406        0.01      0.01      0.01      0.74         0.01
  WS02004404WS02004405        0.01      0.01      0.01      5.82         0.01
  WS02003072WS02003073        0.01      0.01      0.01      5.07         0.01
  YS02001759YS02001757        5.53      5.53      5.59      0.01         0.01
  YS02001762YS02001759        5.51      5.51      5.53      0.01         0.01
  YS02001765YS02001762        5.48      5.48      5.51      0.01         0.01
  YS02001770YS02001767        5.45      5.46      5.46      0.01         0.62
  YS02001774YS02001770        5.44      5.44      5.49      0.01         0.01
  YS02001779YS02001774        5.03      5.03      5.49      0.01         0.01
  YS02001649YS02001757        5.51      5.51      5.59      0.01         0.01
  YS02001767YS02001765        5.46      5.46      5.48      0.01         0.01
  YS02001784YS02001785        0.01      0.01      0.01      0.73         0.01
  YS02001788YS02001790        0.01      0.01      0.30      0.01         0.01
  YS02001790YS02001791        0.30      0.30      0.33      0.01         0.01
  YS02001791YS02001793        0.33      0.33      0.91      0.01         0.01
  YS02001629YS02163301        5.43      5.43      5.45      0.01         0.01
  YS02001619YS02001622        4.69      4.69      4.73      0.01         0.01
  YS02001622YS02001625        4.73      4.73      5.37      0.01         0.01
  YS02001625YS02001629        4.69      4.69      5.37      0.01         0.01
  YS02163301YS02001633        5.45      5.45      5.49      0.01         0.01
  YS02163601YS02164001        5.48      5.48      5.52      0.01         0.01
  YS02164001YS02001641        5.48      5.48      5.49      0.01         0.01
  YS02001641YS02001644        5.49      5.49      5.50      0.01         1.00
  YS02001647YS02001649        5.32      5.32      5.51      0.01         0.01
  YS02001907YS02006553        0.77      0.77      1.01      0.01         0.01
  YS02006558YS02006561        0.01      0.01      0.01      0.42         0.01
  YS02001633YS02163601        5.48      5.48      5.52      0.01         0.01
  YS02001644YS02001647        5.32      5.32      5.50      0.01         0.01
  YS02001745YS02001748        0.01      0.01      3.31      0.01         0.01
  YS02001748YS02001751        4.43      4.43      4.75      0.01         0.01
  YS02001751YS02001754        4.74      4.74      5.14      0.01         0.01
  YS02001754YS02001757        5.31      5.31      5.59      0.01         0.01
  YS02001652YS02001649        5.34      5.34      5.51      0.01         0.01
  YS02001655YS02001652        4.80      4.80      5.28      0.01         0.01
  YS02001658YS02001655        3.53      3.53      4.80      0.01         0.01
  YS02001661YS02001658        0.01      0.01      3.53      0.01         0.01
  YS02001664YS02001661        0.01      0.01      0.14      0.01         0.01
  HS02004881HS02006253        0.01      0.01      0.56      0.01         0.01
  YS02001793JiankangQianchi        0.74      0.74      3.46      0.01         0.01
  YS02001757CaochengTiaoxuchi        4.51      4.51      5.59      0.01         0.01
  
  
  ***************
  Pumping Summary
  ***************
  
  ---------------------------------------------------------------------------------------------------------
                                                  Min       Avg       Max     Total     Power    % Time Off
                        Percent   Number of      Flow      Flow      Flow    Volume     Usage    Pump Curve
  Pump                 Utilized   Start-Ups       LPS       LPS       LPS  10^6 ltr     Kw-hr    Low   High
  ---------------------------------------------------------------------------------------------------------
  CC-Pump-1               55.31           1      0.00    183.69    200.00     2.820      3.66    0.0    0.0
  CC-Pump-2               38.30           4      0.00    101.13    200.00     1.320      1.98    0.0    0.0
  JK-Pump-1               51.07           5      0.00    168.95    300.00     2.584     44.93    0.0    0.0
  JK-Pump-2               34.05           4      0.00    223.26    683.00     2.513     46.32    0.0   96.2
  XR-Pump-1               85.11           4      0.00     88.68     95.00     2.081     43.30    0.0    0.0
  XR-Pump-2               85.11           4      0.00     88.68     95.00     2.081     43.30    0.0    0.0
  XR-Pump-3               80.86           4      0.00     82.80     95.00     1.910     39.70    0.0    0.0
  XR-Pump-4               80.86           4      0.00     82.80     95.00     1.910     39.70    0.0    0.0
  
  
  ***************************
  Link Pollutant Load Summary
  ***************************
  
  ------------------------------------------------------------------------------------------
                                 COD            SS            TN            TP         NH4-N
  Link                            kg            kg            kg            kg            kg
  ------------------------------------------------------------------------------------------
  WS02003066WSF200           495.316       854.231        15.891         1.504         8.696
  WS02006287WS02006284       136.706       240.602         6.830         0.764         4.021
  WS02006284WS02006280       137.130       241.287         6.870         0.769         4.046
  WS02006280WS02006229       137.114       241.257         6.869         0.769         4.046
  WS02006229WS02006228       501.283       863.940        15.616         1.455         8.489
  WS02006256WS02006235        91.548       156.230         2.480         0.214         1.314
  WS02006253WS02006251        24.084        44.035         0.643         0.054         0.334
  WS02006252WS02006251       270.233       459.089         6.129         0.455         3.046
  WS02006251WS02006249       288.105       492.617         6.643         0.501         3.319
  WS02006249WS02006248       279.421       477.745         6.442         0.485         3.219
  WS02006248WS02006247       279.267       477.514         6.442         0.486         3.219
  WS02006247WS02006245       278.860       476.842         6.431         0.485         3.213
  WS02006245WS02006243       278.544       476.393         6.419         0.484         3.206
  WS02006243WS02006242       278.867       477.059         6.425         0.484         3.210
  WS02006242WS02006240       279.248       477.869         6.431         0.484         3.213
  WS02006240WS02006239       280.263       479.794         6.451         0.486         3.222
  WS02006239WS02006238       281.835       482.493         6.501         0.491         3.250
  WS02006238WS02006235       282.467       483.427         6.524         0.493         3.264
  WS02006235WS02006234       367.492       628.242         8.835         0.693         4.488
  WS02006234WS02006232       367.054       627.511         8.829         0.692         4.487
  WS02006232WS02006231       366.341       626.308         8.810         0.691         4.477
  WS02006231WS02006230       365.682       625.180         8.796         0.690         4.470
  WS02006230WS02006229       365.386       624.765         8.793         0.690         4.469
  WS02006228WS02006109       500.402       862.501        15.589         1.452         8.474
  WS02006116WS02004401       505.862       871.785        16.183         1.529         8.849
  WS02006115WS02006116       506.991       873.637        16.228         1.534         8.875
  WS02006113WS02006111       506.192       871.655        16.283         1.541         8.913
  WS02006112WS02006115       508.064       875.430        16.277         1.539         8.903
  WS02006111WS02006112       505.647       870.746        16.263         1.539         8.902
  WS02006110WS02006113       506.710       872.520        16.307         1.544         8.927
  WS02006109WS02006110       508.015       874.684        16.373         1.551         8.967
  WS02004411WS02004412       498.223       859.103        15.994         1.514         8.754
  WS02004401WS02004402       504.711       869.870        16.134         1.524         8.821
  WS02004413WS02003067       495.898       855.180        15.907         1.505         8.704
  WS02004412WS02004413       497.076       857.192        15.957         1.511         8.733
  WS02004410WS02004411       499.058       860.484        16.020         1.517         8.768
  WS02004409WS02004410       499.849       861.802        16.047         1.519         8.782
  WS02004407WS02004409       500.466       862.809        16.064         1.521         8.791
  WS02004406WS02004407       500.591       862.983        16.063         1.520         8.790
  WS02004405WS02004406       502.062       865.423        16.128         1.527         8.827
  WS02004404WS02004405       503.121       867.170        16.139         1.527         8.830
  WS02004403WS02004404       502.648       866.453        16.055         1.516         8.776
  WS02004402WS02004403       503.625       868.081        16.093         1.520         8.798
  WS02004139WS02001211      1267.691      2037.672       116.943        14.527        72.817
  WS02004138WS02004139      1268.063      2038.286       116.968        14.530        72.833
  WS02003067WS02003066       495.436       854.432        15.895         1.505         8.698
  WS02001213WS02003059      1311.540      2107.809       121.166        15.055        75.457
  WS02001212WS02001213      1316.764      2116.192       121.652        15.115        75.761
  WS02001211WS02001212      1316.598      2115.921       121.640        15.114        75.753
  WS02003072WS02003073      1918.322      3140.231       147.906        17.918        90.940
  WS02003069WS02003072      1921.094      3144.711       148.155        17.949        91.096
  WS02003060WS02003069      1920.437      3143.714       148.039        17.933        91.020
  WS02003059WS02003060      1311.912      2108.402       121.198        15.059        75.478
  HS02004901HS02004770         3.903         7.209         0.075         0.005         0.035
  HS02004876HS02004881        15.107        28.266         0.403         0.033         0.208
  HS02004870HS02004876        11.543        21.483         0.343         0.030         0.181
  HS02004842HS02004848         2.111         3.784         0.046         0.003         0.021
  HS02004837HS02004842         6.729        11.132         0.514         0.062         0.315
  HS02004830HS02004837        51.794        85.335         4.293         0.527         2.658
  HS02004824HS02004830        52.544        86.537         4.365         0.536         2.703
  HS02004817HS02004824        60.908       102.153         4.564         0.550         2.804
  HS02004770HS02004777        15.007        27.959         0.320         0.021         0.146
  HS02004799HS02004480        58.836       104.900         2.263         0.234         1.270
  HS02004792HS02004799        54.213        95.763         2.225         0.235         1.260
  HS02004788HS02004792        34.124        60.010         1.694         0.187         0.986
  HS02004785HS02004788        16.508        30.373         0.473         0.040         0.242
  HS02004777HS02004785        15.956        29.480         0.423         0.034         0.211
  HS02004480HS02004478        72.067       130.201         2.444         0.244         1.348
  HS02004479HS02004480        17.443        32.007         0.581         0.060         0.328
  HS02004862HS02004870         8.607        15.682         0.285         0.026         0.153
  HS02004848HS02004852         2.716         4.931         0.058         0.004         0.027
  HS02004856HS02004862         5.133         9.658         0.105         0.007         0.049
  HS02004852HS02004856         2.712         4.924         0.058         0.004         0.027
  HS02004802HS02004478        64.959       110.927         4.414         0.524         2.691
  HS02004478WS02006287       136.890       240.907         6.846         0.766         4.031
  HS02004817HS02004807        59.541        99.967         4.435         0.534         2.723
  HS02004807HS02004802        65.567       111.895         4.473         0.531         2.728
  YS02001759YS02001757       156.936       268.871         3.457         0.243         1.718
  YS02001762YS02001759        82.732       142.796         2.006         0.147         1.019
  YS02001765YS02001762        82.125       141.664         2.018         0.149         1.028
  YS02001770YS02001767        79.717       137.746         1.720         0.110         0.838
  YS02001774YS02001770         5.044         8.666         0.128         0.010         0.066
  YS02001779YS02001774         3.470         5.803         0.167         0.018         0.098
  YS02001649YS02001757       228.324       378.519         5.050         0.378         2.463
  YS02001767YS02001765        82.113       141.584         2.031         0.151         1.036
  YS02006561YS02001783       323.630       550.412         8.377         0.698         4.382
  YS02001783YS02001784       323.551       550.296         8.373         0.698         4.380
  YS02001784YS02001785       330.935       562.133         9.087         0.787         4.827
  YS02001788YS02001790       331.618       563.253         9.161         0.797         4.873
  YS02001790YS02001791       332.629       564.887         9.260         0.809         4.936
  YS02001791YS02001793       332.613       564.848         9.259         0.809         4.934
  YS02001910YS02001907       110.625       184.633         3.967         0.371         2.203
  YS02001786YS02001788       331.172       562.528         9.115         0.791         4.845
  YS02001915YS02001910       110.535       184.444         3.921         0.364         2.173
  YS02001918YS02001915        56.381        90.273         2.718         0.298         1.597
  YS02001923YS02001920        36.385        58.295         0.773         0.054         0.381
  YS02001926YS02001923        36.023        57.711         0.735         0.050         0.357
  YS02001929YS02001926        35.758        57.278         0.703         0.046         0.337
  YS02001920YS02001918        56.315        90.188         2.692         0.294         1.580
  YS02001629YS02163301        40.541        67.457         0.896         0.056         0.415
  YS02001619YS02001622        44.025        72.907         0.977         0.061         0.451
  YS02001622YS02001625        43.182        71.662         0.956         0.059         0.441
  YS02001625YS02001629        41.986        69.874         0.927         0.058         0.428
  YS02163301YS02001633        40.870        68.045         0.901         0.057         0.418
  YS02163601YS02164001       114.326       188.875         2.456         0.174         1.184
  YS02164001YS02001641       113.930       188.236         2.435         0.172         1.172
  YS02001641YS02001644       114.694       189.498         2.442         0.172         1.174
  YS02001647YS02001649       180.820       298.076         3.700         0.260         1.770
  YS02006553YS02006556       234.500       397.454         6.404         0.557         3.409
  YS02006556YS02006558       234.440       397.337         6.373         0.552         3.389
  YSB6556YSB1171               9.272        17.171         0.242         0.023         0.131
  YS02001907YS02006553       234.489       397.459         6.400         0.556         3.407
  YS02006558YS02006561       323.601       550.349         8.375         0.698         4.381
  YS02001633YS02163601       114.968       189.833         2.438         0.170         1.169
  YS02001644YS02001647       181.709       299.418         3.720         0.262         1.780
  YS02001745YS02001748        62.232       105.723         1.394         0.087         0.680
  YS02001748YS02001751        66.043       111.935         1.783         0.136         0.924
  YS02001751YS02001754        64.394       109.025         1.817         0.144         0.953
  YS02001754YS02001757        65.268       110.409         1.980         0.166         1.059
  YS02001882YS02001884         0.799         1.290         0.021         0.002         0.011
  YS02001884YS02001887         2.984         5.008         0.071         0.006         0.037
  YS02001890YS02001895       125.069       214.578         2.465         0.188         1.221
  YS02001895YS02001898       124.929       214.378         2.459         0.187         1.217
  YS02001898YS02001901       124.805       214.201         2.456         0.187         1.216
  YS02001901YS02001904       124.822       214.262         2.473         0.189         1.227
  YS02001904YS02001907       125.451       215.310         2.555         0.200         1.279
  YS02001887YS02001890       125.913       215.880         2.527         0.195         1.259
  YS02001652YS02001649        49.296        83.221         1.377         0.118         0.703
  YS02001655YS02001652        49.947        84.265         1.396         0.120         0.712
  YS02001658YS02001655        47.770        80.899         1.082         0.079         0.510
  YS02001661YS02001658        50.020        84.729         1.059         0.072         0.485
  YS02001664YS02001661        60.454       101.204         1.297         0.088         0.592
  YSB1154YSB6556               8.790        16.403         0.182         0.015         0.093
  YSB1174YSB1171               6.338        11.888         0.165         0.015         0.088
  YSB1171HS02004479           17.362        31.886         0.573         0.059         0.323
  HS02004881HS02006253        16.996        31.956         0.430         0.034         0.220
  YS02001793JiankangQianchi       333.374       566.091         9.275         0.810         4.942
  YS02001757CaochengTiaoxuchi       445.261       750.332        10.167         0.752         5.050
  WSF200WS02003060           495.023       853.758        15.887         1.504         8.694
  1                         1931.210      3160.781       149.307        18.096        91.823
  CC-Pump-1                  182.811       310.244         4.147         0.308         2.061
  CC-Pump-2                   87.450       148.892         1.982         0.148         0.986
  JK-Pump-1                  102.005       173.928         2.718         0.232         1.434
  JK-Pump-2                  113.302       193.746         3.089         0.268         1.640
  XR-Pump-1                  332.527       534.559        30.646         3.806        19.081
  XR-Pump-2                  332.527       534.559        30.646         3.806        19.081
  XR-Pump-3                  302.923       486.865        27.969         3.475        17.417
  XR-Pump-4                  302.923       486.865        27.969         3.475        17.417
  

  Analysis begun on:  Sun Jul 11 13:02:47 2021
  Analysis ended on:  Sun Jul 11 13:02:50 2021
  Total elapsed time: 00:00:03