
  EPA STORM WATER MANAGEMENT MODEL - VERSION 5.1 (Build 5.3.0.dev0)
  --------------------------------------------------------------

  WARNING 04: minimum elevation drop used for Conduit WS02004404WS02004405
  WARNING 03: negative offset ignored for Link YS02001904YS02001907
  
  *********************************************************
  NOTE: The summary statistics displayed in this report are
  based on results found at every computational time step,  
  not just on results from each reporting time step.
  *********************************************************
  
  ****************
  Analysis Options
  ****************
  Flow Units ............... LPS
  Process Models:
    Rainfall/Runoff ........ YES
    RDII ................... NO
    Snowmelt ............... NO
    Groundwater ............ NO
    Flow Routing ........... YES
    Ponding Allowed ........ NO
    Water Quality .......... YES
  Infiltration Method ...... HORTON
  Flow Routing Method ...... DYNWAVE
  Surcharge Method ......... EXTRAN
  Starting Date ............ 08/28/2015 08:00:00
  Ending Date .............. 08/28/2015 15:50:00
  Antecedent Dry Days ...... 8.0
  Report Time Step ......... 00:01:00
  Wet Time Step ............ 00:01:00
  Dry Time Step ............ 00:01:00
  Routing Time Step ........ 5.00 sec
  Variable Time Step ....... YES
  Maximum Trials ........... 8
  Number of Threads ........ 4
  Head Tolerance ........... 0.001500 m
  
  
  **************************        Volume         Depth
  Runoff Quantity Continuity     hectare-m            mm
  **************************     ---------       -------
  Total Precipitation ......         2.372         5.192
  Evaporation Loss .........         0.000         0.000
  Infiltration Loss ........         0.524         1.148
  Surface Runoff ...........         1.347         2.949
  Final Storage ............         0.501         1.096
  Continuity Error (%) .....        -0.022
  
  
  **************************           COD            SS            TN            TP         NH4-N
  Runoff Quality Continuity             kg            kg            kg            kg            kg
  **************************    ----------    ----------    ----------    ----------    ----------
  Initial Buildup ..........     41378.656     70582.865      1804.177       168.684      1032.807
  Surface Buildup ..........        14.108        17.594         2.944         0.272         1.743
  Wet Deposition ...........         0.000         0.000         0.000         0.000         0.000
  Sweeping Removal .........         0.000         0.000         0.000         0.000         0.000
  Infiltration Loss ........        23.108        40.046         0.463         0.031         0.217
  BMP Removal ..............         0.000         0.000         0.000         0.000         0.000
  Surface Runoff ...........       760.789      1281.195        15.550         1.002         7.321
  Remaining Buildup ........     40608.624     69278.813      1791.102       167.923      1027.010
  Continuity Error (%) .....         0.001         0.001         0.000         0.000         0.000
  
  
  **************************        Volume        Volume
  Flow Routing Continuity        hectare-m      10^6 ltr
  **************************     ---------     ---------
  Dry Weather Inflow .......         0.616         6.165
  Wet Weather Inflow .......         1.346        13.464
  Groundwater Inflow .......         0.000         0.000
  RDII Inflow ..............         0.000         0.000
  External Inflow ..........         0.102         1.024
  External Outflow .........         1.499        14.993
  Flooding Loss ............         0.220         2.203
  Evaporation Loss .........         0.000         0.000
  Exfiltration Loss ........         0.000         0.000
  Initial Stored Volume ....         0.076         0.761
  Final Stored Volume ......         0.534         5.343
  Continuity Error (%) .....        -5.259
  
  
  **************************           COD            SS            TN            TP         NH4-N
  Quality Routing Continuity            kg            kg            kg            kg            kg
  **************************    ----------    ----------    ----------    ----------    ----------
  Dry Weather Inflow .......      1541.201      2465.922       147.955        18.494        92.472
  Wet Weather Inflow .......       760.513      1280.767        15.543         1.002         7.318
  Groundwater Inflow .......         0.000         0.000         0.000         0.000         0.000
  RDII Inflow ..............         0.000         0.000         0.000         0.000         0.000
  External Inflow ..........       183.418       293.469        17.608         2.201        11.005
  External Outflow .........      1839.702      2986.368       150.244        18.355        92.783
  Flooding Loss ............       107.454       181.672         3.002         0.263         1.601
  Exfiltration Loss ........         0.000         0.000         0.000         0.000         0.000
  Mass Reacted .............         0.000         0.000         0.000         0.000         0.000
  Initial Stored Mass ......         0.000         0.000         0.000         0.000         0.000
  Final Stored Mass ........       377.395       610.122        18.781         2.049        10.997
  Continuity Error (%) .....         6.462         6.485         5.013         4.749         4.887
  
  
  *************************
  Highest Continuity Errors
  *************************
  Node YS02001774 (40.95%)
  Node HS02004842 (26.21%)
  Node JK-storage (-23.53%)
  Node YS02001884 (20.72%)
  Node YSB1171 (6.26%)
  
  
  ***************************
  Time-Step Critical Elements
  ***************************
  Link WS02006252WS02006251 (73.72%)
  Link WS02006280WS02006229 (8.56%)
  Link YS02001793JiankangQianchi (6.10%)
  Link WS02006238WS02006235 (5.40%)
  
  
  ********************************
  Highest Flow Instability Indexes
  ********************************
  Link WS02006113WS02006111 (51)
  Link YS02001779YS02001774 (29)
  Link YS02001774YS02001770 (26)
  Link YS02001619YS02001622 (25)
  Link WS02006111WS02006112 (20)
  
  
  *************************
  Routing Time Step Summary
  *************************
  Minimum Time Step           :     0.50 sec
  Average Time Step           :     1.17 sec
  Maximum Time Step           :     5.00 sec
  Percent in Steady State     :    -0.00
  Average Iterations per Step :     4.43
  Percent Not Converging      :    27.01
  
  
  ***************************
  Subcatchment Runoff Summary
  ***************************
  
  ------------------------------------------------------------------------------------------------------------------------------
                            Total      Total      Total      Total     Imperv       Perv      Total       Total     Peak  Runoff
                           Precip      Runon       Evap      Infil     Runoff     Runoff     Runoff      Runoff   Runoff   Coeff
  Subcatchment                 mm         mm         mm         mm         mm         mm         mm    10^6 ltr      LPS
  ------------------------------------------------------------------------------------------------------------------------------
  sub0                       5.19       0.00       0.00       0.36       4.78       0.00       4.78        0.00     1.48   0.921
  sub1                       5.19       0.00       0.00       0.57       4.53       0.00       4.53        0.03     8.53   0.873
  sub2                       5.19       0.00       0.00       1.92       3.19       0.00       3.19        0.03     7.64   0.615
  sub3                       5.19       0.00       0.00       1.92       3.16       0.00       3.16        0.07    15.89   0.608
  sub4                       5.19       0.00       0.00       0.57       4.40       0.00       4.40        0.09    17.93   0.847
  sub5                       5.19       0.00       0.00       0.36       4.74       0.00       4.74        0.05    15.18   0.913
  sub7                       5.19       0.00       0.00       0.47       4.66       0.00       4.66        0.02     5.17   0.898
  sub8                       5.19       0.00       0.00       0.47       4.66       0.00       4.66        0.03     9.26   0.897
  sub9                       5.19       0.00       0.00       0.47       4.65       0.00       4.65        0.02     6.89   0.896
  sub10                      5.19       0.00       0.00       0.42       4.69       0.00       4.69        0.05    15.07   0.904
  sub11                      5.19       0.00       0.00       0.42       4.71       0.00       4.71        0.05    17.35   0.907
  sub12                      5.19       0.00       0.00       0.67       4.47       0.00       4.47        0.04    14.06   0.861
  sub14                      5.19       0.00       0.00       0.47       4.65       0.00       4.65        0.04    13.49   0.896
  sub15                      5.19       0.00       0.00       1.56       3.58       0.00       3.58        0.06    18.38   0.689
  sub16                      5.19       0.00       0.00       1.71       3.44       0.00       3.44        0.04    12.53   0.662
  sub17                      5.19       0.00       0.00       1.66       3.49       0.00       3.49        0.03    10.21   0.672
  sub22                      5.19       0.00       0.00       2.23       2.92       0.00       2.92        0.18    59.19   0.562
  sub23                      5.19       0.00       0.00       1.92       3.23       0.00       3.23        0.15    50.18   0.622
  sub60                      5.19       0.00       0.00       0.62       3.24       0.00       3.24        0.98    89.56   0.623
  sub61                      5.19       0.00       0.00       0.88       3.43       0.00       3.43        1.06   113.28   0.661
  sub62                      5.19       0.00       0.00       0.42       3.69       0.00       3.69        1.13   115.50   0.711
  sub63                      5.19       0.00       0.00       1.51       3.05       0.00       3.05        0.92   106.06   0.587
  sub64                      5.19       0.00       0.00       0.78       3.09       0.00       3.09        0.94    85.02   0.596
  sub65                      5.19       0.00       0.00       0.67       3.14       0.00       3.14        0.96    86.23   0.604
  sub66                      5.19       0.00       0.00       1.51       2.69       0.00       2.69        0.83    78.12   0.519
  sub67                      5.19       0.00       0.00       0.42       4.03       0.00       4.03        1.24   149.33   0.776
  sub68                      5.19       0.00       0.00       0.73       3.65       0.00       3.65        1.12   125.50   0.702
  sub69                      5.19       0.00       0.00       0.78       3.91       0.00       3.91        0.91   125.52   0.753
  sub70                      5.19       3.99       0.00       3.12       4.88       0.00       4.88        1.12   101.47   0.531
  sub71                      5.19       0.00       0.00       0.42       3.54       0.00       3.54        0.84    80.38   0.682
  sub72                      5.19       0.00       0.00       0.36       2.54       0.00       2.54        0.52    38.30   0.489
  1                          5.19       4.75       0.00       1.32       5.02       0.74       5.76        1.35    97.03   0.580
  2                          5.19       0.00       0.00       2.91       1.18       0.24       1.42        0.57    76.81   0.273
  
  
  ****************************
  Subcatchment Washoff Summary
  ****************************
  
  ------------------------------------------------------------------------------------------
                                 COD            SS            TN            TP         NH4-N
  Subcatchment                    kg            kg            kg            kg            kg
  ------------------------------------------------------------------------------------------
  sub0                         0.744         1.376         0.012         0.001         0.006
  sub1                         3.009         5.620         0.057         0.004         0.027
  sub2                         1.716         3.082         0.039         0.002         0.017
  sub3                         4.128         7.304         0.091         0.006         0.041
  sub4                         6.556        12.124         0.136         0.008         0.065
  sub5                         6.914        12.755         0.121         0.009         0.058
  sub7                         1.607         3.068         0.030         0.002         0.015
  sub8                         2.428         4.724         0.050         0.003         0.024
  sub9                         2.051         3.936         0.040         0.002         0.019
  sub10                        5.759        10.773         0.105         0.007         0.051
  sub11                        5.748        10.918         0.108         0.007         0.052
  sub12                        4.810         8.996         0.086         0.006         0.041
  sub14                        4.344         8.258         0.083         0.005         0.040
  sub15                        5.059         9.153         0.100         0.007         0.046
  sub16                        3.230         5.858         0.063         0.005         0.029
  sub17                        2.951         5.301         0.055         0.004         0.026
  sub22                       14.894        26.378         0.291         0.021         0.134
  sub23                        9.231        16.984         0.207         0.013         0.094
  sub60                       48.900        81.647         1.052         0.060         0.502
  sub61                       62.239       103.708         1.217         0.078         0.583
  sub62                       65.728       111.531         1.369         0.081         0.654
  sub63                       46.826        77.122         1.022         0.068         0.465
  sub64                       57.803        92.843         1.117         0.078         0.528
  sub65                       59.271        95.619         1.155         0.078         0.548
  sub66                       35.156        57.158         0.796         0.049         0.366
  sub67                       98.938       166.904         1.808         0.127         0.869
  sub68                       70.255       118.579         1.422         0.090         0.674
  sub69                       66.301       113.908         1.294         0.086         0.613
  sub70                       99.624       170.693         2.117         0.139         0.975
  sub71                       43.522        74.411         0.972         0.052         0.463
  sub72                       27.896        43.916         0.555         0.036         0.266
  1                           51.128        88.293         1.127         0.075         0.511
  2                            7.950        12.855         0.264         0.016         0.110
  ------------------------------------------------------------------------------------------
  System                     926.714      1565.796        18.961         1.228         8.910
  
  
  ******************
  Node Depth Summary
  ******************
  
  ---------------------------------------------------------------------------------
                                 Average  Maximum  Maximum  Time of Max    Reported
                                   Depth    Depth      HGL   Occurrence   Max Depth
  Node                 Type       Meters   Meters   Meters  days hr:min      Meters
  ---------------------------------------------------------------------------------
  WS02001211           JUNCTION     0.68     0.79     5.63     0  06:21        0.79
  WS02001212           JUNCTION     0.40     0.50     5.57     0  06:20        0.50
  WS02001213           JUNCTION     0.64     0.75     5.51     0  06:20        0.75
  WS02003069           JUNCTION     0.44     0.57     5.16     0  06:19        0.57
  WS02003072           JUNCTION     0.51     0.63     5.00     0  06:19        0.63
  WS02003073           JUNCTION     0.31     0.39     4.45     0  06:20        0.39
  WS02003060           JUNCTION     0.39     0.51     5.44     0  06:18        0.51
  WS02003066           JUNCTION     0.22     0.30     5.85     0  04:47        0.30
  WS02003059           JUNCTION     0.70     0.80     5.49     0  06:19        0.80
  WS02003067           JUNCTION     0.56     0.70     6.02     0  04:47        0.70
  WS02004401           JUNCTION     0.65     0.86     6.86     0  04:45        0.86
  WS02004402           JUNCTION     0.68     0.88     6.84     0  04:45        0.88
  WS02004403           JUNCTION     0.70     0.90     6.83     0  04:45        0.90
  WS02004404           JUNCTION     0.78     0.97     6.82     0  04:45        0.97
  WS02004406           JUNCTION     0.79     0.96     6.79     0  04:45        0.96
  WS02004409           JUNCTION     0.46     0.67     6.44     0  04:46        0.67
  WS02004410           JUNCTION     0.49     0.69     6.41     0  04:46        0.69
  WS02004411           JUNCTION     0.50     0.69     6.37     0  04:47        0.69
  WS02004412           JUNCTION     0.52     0.70     6.34     0  04:47        0.70
  WS02004413           JUNCTION     0.69     0.86     6.33     0  04:47        0.86
  WS02004405           JUNCTION     0.78     0.96     6.81     0  04:46        0.96
  WS02006109           JUNCTION     0.72     0.99     7.61     0  06:10        0.99
  WS02006110           JUNCTION     0.72     0.93     7.52     0  06:10        0.93
  WS02006111           JUNCTION     0.21     0.29     7.00     0  04:44        0.29
  WS02006112           JUNCTION     0.81     1.07     6.96     0  04:44        1.07
  WS02006113           JUNCTION     0.32     0.46     7.35     0  04:39        0.46
  WS02006115           JUNCTION     0.54     0.76     6.90     0  04:44        0.76
  WS02006116           JUNCTION     0.62     0.84     6.88     0  04:44        0.84
  WS02006230           JUNCTION     0.68     1.12     7.86     0  06:10        1.12
  WS02006231           JUNCTION     0.45     0.87     7.99     0  04:39        0.86
  WS02006232           JUNCTION     0.59     1.07     8.11     0  04:38        1.06
  WS02006234           JUNCTION     0.51     1.08     8.23     0  04:39        1.07
  WS02006235           JUNCTION     0.55     1.17     8.33     0  04:39        1.16
  WS02006238           JUNCTION     0.58     1.19     8.34     0  04:39        1.19
  WS02006240           JUNCTION     0.49     1.13     8.43     0  04:39        1.13
  WS02006242           JUNCTION     0.55     1.22     8.49     0  04:40        1.21
  WS02006243           JUNCTION     0.43     1.14     8.56     0  04:38        1.12
  WS02006245           JUNCTION     0.42     1.13     8.61     0  04:38        1.11
  WS02006247           JUNCTION     0.43     1.14     8.64     0  04:38        1.13
  WS02006248           JUNCTION     0.38     1.08     8.67     0  04:38        1.07
  WS02006249           JUNCTION     0.41     1.09     8.69     0  04:38        1.09
  WS02006239           JUNCTION     0.54     1.18     8.39     0  04:39        1.17
  WS02006251           JUNCTION     0.39     1.23     8.90     0  06:09        1.13
  WS02006252           JUNCTION     0.30     0.78     9.02     0  06:09        0.69
  WS02006253           JUNCTION     0.42     1.29     8.93     0  04:38        1.16
  WS02006256           JUNCTION     1.27     2.35     9.28     0  00:00        2.35
  WS02004138           JUNCTION     0.15     0.20     7.45     0  00:00        0.19
  WS02004139           JUNCTION     0.62     0.74     5.65     0  06:21        0.74
  WS02004407           JUNCTION     0.21     0.30     6.61     0  04:46        0.30
  WS02006228           JUNCTION     0.71     1.04     7.69     0  04:39        1.03
  WS02006229           JUNCTION     0.69     1.03     7.72     0  04:39        1.03
  WS02006280           JUNCTION     0.05     0.15     8.42     0  02:13        0.15
  WS02006284           JUNCTION     0.34     0.49     8.89     0  02:13        0.49
  WS02006287           JUNCTION     0.07     0.23     9.18     0  02:13        0.23
  WSF200               JUNCTION     0.20     0.31     5.55     0  04:47        0.31
  HS02004901           JUNCTION     0.10     0.24    10.06     0  02:11        0.24
  HS02004881           JUNCTION     0.00     0.03     9.06     0  02:12        0.03
  HS02004876           JUNCTION     0.03     0.10     9.13     0  02:10        0.10
  HS02004870           JUNCTION     0.01     0.04     9.33     0  02:13        0.04
  HS02004862           JUNCTION     0.01     0.05     9.44     0  02:14        0.05
  HS02004856           JUNCTION     0.07     0.11     9.53     0  02:13        0.11
  HS02004852           JUNCTION     0.00     0.03     9.54     0  02:14        0.03
  HS02004848           JUNCTION     0.00     0.03     9.63     0  02:12        0.03
  HS02004842           JUNCTION     0.33     0.36     9.63     0  02:12        0.36
  HS02004837           JUNCTION     0.02     0.05     9.63     0  02:12        0.05
  HS02004830           JUNCTION     0.03     0.06     9.53     0  02:13        0.06
  HS02004824           JUNCTION     0.02     0.04     9.45     0  02:15        0.04
  HS02004817           JUNCTION     0.42     0.54     9.38     0  02:13        0.54
  HS02004807           JUNCTION     0.10     0.21     9.38     0  02:13        0.21
  HS02004802           JUNCTION     0.14     0.25     9.38     0  02:13        0.25
  HS02004799           JUNCTION     0.09     0.27     9.48     0  02:11        0.27
  HS02004792           JUNCTION     0.02     0.11     9.63     0  02:11        0.11
  HS02004788           JUNCTION     0.01     0.08     9.98     0  02:12        0.08
  HS02004785           JUNCTION     0.02     0.14    10.04     0  02:11        0.14
  HS02004777           JUNCTION     0.12     0.26    10.06     0  02:11        0.26
  HS02004770           JUNCTION     0.09     0.23    10.06     0  02:11        0.23
  HS02004480           JUNCTION     0.05     0.21     9.45     0  02:11        0.21
  HS02004479           JUNCTION     0.09     0.25     9.45     0  02:12        0.25
  HS02004478           JUNCTION     0.04     0.14     9.36     0  02:13        0.14
  YS02001745           JUNCTION     0.58     0.80     8.32     0  05:21        0.80
  YS02001748           JUNCTION     0.97     1.25     8.32     0  05:24        1.24
  YS02001751           JUNCTION     1.15     1.45     8.33     0  05:24        1.44
  YS02001754           JUNCTION     1.41     1.73     8.34     0  05:21        1.72
  YS02001762           JUNCTION     1.60     1.94     8.34     0  05:21        1.93
  YS02001765           JUNCTION     1.55     1.90     8.35     0  06:12        1.88
  YS02001767           JUNCTION     1.52     1.89     8.37     0  06:12        1.86
  YS02001770           JUNCTION     1.51     1.90     8.40     0  06:12        1.86
  YS02001774           JUNCTION     1.58     1.97     8.39     0  06:12        1.94
  YS02001779           JUNCTION     1.33     1.68     8.37     0  04:12        1.68
  YS02001882           JUNCTION     0.27     0.50     7.22     0  02:39        0.50
  YS02001884           JUNCTION     0.36     0.60     7.22     0  02:39        0.60
  YS02001759           JUNCTION     1.64     1.98     8.34     0  05:21        1.97
  YS02001887           JUNCTION     0.44     0.68     7.22     0  02:40        0.68
  YS02001890           JUNCTION     0.47     0.71     7.21     0  02:40        0.71
  YS02001898           JUNCTION     0.24     0.46     7.20     0  02:42        0.46
  YS02001901           JUNCTION     0.36     0.59     7.20     0  02:45        0.59
  YS02001904           JUNCTION     0.34     0.56     7.19     0  02:52        0.56
  YS02001907           JUNCTION     0.67     0.91     7.20     0  02:43        0.91
  YS02001910           JUNCTION     0.46     0.69     7.20     0  02:43        0.69
  YS02001915           JUNCTION     0.26     0.48     7.20     0  02:44        0.48
  YS02001918           JUNCTION     0.08     0.13     7.19     0  02:42        0.13
  YS02001619           JUNCTION     1.11     1.50     8.43     0  04:44        1.46
  YS02001629           JUNCTION     1.46     1.85     8.40     0  04:44        1.84
  YS02001641           JUNCTION     1.57     1.94     8.38     0  05:00        1.93
  YS02001644           JUNCTION     1.57     1.92     8.35     0  05:00        1.92
  YS02001652           JUNCTION     1.42     1.77     8.37     0  04:06        1.74
  YS02001655           JUNCTION     1.18     1.63     8.48     0  04:06        1.49
  YS02001920           JUNCTION     0.18     0.22     7.23     0  02:56        0.22
  YS02001923           JUNCTION     0.07     0.09     7.35     0  03:01        0.09
  YS02001926           JUNCTION     0.14     0.19     7.63     0  03:01        0.19
  YS02001929           JUNCTION     0.07     0.09     7.79     0  03:01        0.09
  YS02001658           JUNCTION     0.92     1.47     8.61     0  04:07        1.21
  YS02001661           JUNCTION     0.69     0.95     8.35     0  05:23        0.95
  YS02001664           JUNCTION     0.24     0.44     8.36     0  05:24        0.43
  YS02001622           JUNCTION     1.14     1.51     8.42     0  04:12        1.48
  YS02001633           JUNCTION     1.55     1.95     8.41     0  05:00        1.93
  YS02001649           JUNCTION     1.61     1.96     8.35     0  05:19        1.95
  YS02001757           JUNCTION     1.74     2.08     8.34     0  05:21        2.07
  YS02001895           JUNCTION     0.24     0.46     7.21     0  02:40        0.46
  YS02001625           JUNCTION     1.42     1.78     8.38     0  04:12        1.78
  YS02163301           JUNCTION     1.49     1.90     8.41     0  05:00        1.87
  YS02163601           JUNCTION     1.61     2.01     8.40     0  05:00        1.98
  YS02164001           JUNCTION     1.55     1.94     8.40     0  05:00        1.92
  YS02001647           JUNCTION     1.40     1.74     8.35     0  05:24        1.74
  YSB1154              JUNCTION     0.23     0.40     9.46     0  02:12        0.40
  YSB6556              JUNCTION     0.12     0.29     9.45     0  02:11        0.29
  YSB1174              JUNCTION     0.18     0.35     9.45     0  02:11        0.35
  YSB1171              JUNCTION     0.38     0.55     9.45     0  02:12        0.55
  YS02006553           JUNCTION     0.67     0.91     7.19     0  02:53        0.91
  YS02006561           JUNCTION     0.13     0.25     6.91     0  02:51        0.25
  YS02006556           JUNCTION     0.65     0.88     7.19     0  02:50        0.88
  YS02006558           JUNCTION     0.69     0.92     7.19     0  02:48        0.92
  YS02001783           JUNCTION     0.23     0.67     6.81     0  03:06        0.64
  YS02001784           JUNCTION     0.26     0.73     6.80     0  03:06        0.72
  YS02001786           JUNCTION     0.22     0.73     6.76     0  03:06        0.73
  YS02001788           JUNCTION     0.16     0.77     6.74     0  03:06        0.72
  YS02001790           JUNCTION     0.20     1.24     6.88     0  03:04        1.02
  YS02001791           JUNCTION     0.15     1.24     6.71     0  03:04        1.16
  YS02001793           JUNCTION     0.18     1.86     6.69     0  04:12        1.78
  WSC                  OUTFALL      0.31     0.39     1.06     0  06:20        0.39
  JK-storage           STORAGE      1.99     5.80     6.60     0  03:04        5.80
  CC-storage           STORAGE      1.02     1.31     8.31     0  05:21        1.31
  XR-storage           STORAGE      1.90     5.00     3.00     0  00:00        4.97
  
  
  *******************
  Node Inflow Summary
  *******************
  
  -------------------------------------------------------------------------------------------------
                                  Maximum  Maximum                  Lateral       Total        Flow
                                  Lateral    Total  Time of Max      Inflow      Inflow     Balance
                                   Inflow   Inflow   Occurrence      Volume      Volume       Error
  Node                 Type           LPS      LPS  days hr:min    10^6 ltr    10^6 ltr     Percent
  -------------------------------------------------------------------------------------------------
  WS02001211           JUNCTION      7.35   389.26     0  06:28       0.207        8.06       0.108
  WS02001212           JUNCTION      0.00   391.06     0  06:28           0        8.06       0.132
  WS02001213           JUNCTION      0.00   392.73     0  06:28           0        8.05       0.138
  WS02003069           JUNCTION      0.32   913.39     0  06:19     0.00902          15       0.105
  WS02003072           JUNCTION      0.00   913.14     0  06:19           0          15       0.148
  WS02003073           JUNCTION      1.82   914.99     0  06:20      0.0514          15       0.153
  WS02003060           JUNCTION     16.53   913.27     0  06:18       0.466          15       0.101
  WS02003066           JUNCTION      0.00   543.87     0  04:47           0        6.54       0.058
  WS02003059           JUNCTION      0.00   395.56     0  06:27           0        8.04       0.266
  WS02003067           JUNCTION      0.00   543.75     0  04:47           0        6.55       0.125
  WS02004401           JUNCTION      0.00   547.43     0  04:45           0        6.75       0.281
  WS02004402           JUNCTION      0.00   547.03     0  04:45           0        6.73       0.268
  WS02004403           JUNCTION      0.00   546.81     0  04:45           0        6.71       0.247
  WS02004404           JUNCTION      0.16   546.83     0  04:45     0.00457         6.7       0.190
  WS02004406           JUNCTION      0.00   546.85     0  04:45           0        6.67       0.465
  WS02004409           JUNCTION      0.00   546.58     0  04:46           0        6.63       0.199
  WS02004410           JUNCTION      0.00   545.51     0  04:46           0        6.62       0.230
  WS02004411           JUNCTION      0.00   544.74     0  04:46           0        6.61       0.241
  WS02004412           JUNCTION      0.00   544.23     0  04:47           0        6.59       0.266
  WS02004413           JUNCTION      0.00   543.90     0  04:47           0        6.57       0.406
  WS02004405           JUNCTION      0.04   546.83     0  04:45     0.00107        6.69       0.283
  WS02006109           JUNCTION      1.23   550.10     0  04:39      0.0347        6.83       0.250
  WS02006110           JUNCTION      0.00   549.77     0  04:39           0        6.81       0.250
  WS02006111           JUNCTION      0.00   572.17     0  04:39           0        6.78       0.055
  WS02006112           JUNCTION     10.21   553.96     0  04:44      0.0299        6.81       0.417
  WS02006113           JUNCTION      0.00   550.86     0  04:39           0        6.79       0.116
  WS02006115           JUNCTION      0.00   556.72     0  04:44           0        6.78       0.257
  WS02006116           JUNCTION      0.00   548.52     0  04:44           0        6.76       0.219
  WS02006230           JUNCTION     10.28   531.41     0  04:40        0.29        5.83       0.195
  WS02006231           JUNCTION      0.00   521.25     0  04:42           0        5.55       0.186
  WS02006232           JUNCTION      0.00   521.37     0  04:40           0        5.56       0.272
  WS02006234           JUNCTION      0.00   521.56     0  04:40           0        5.57       0.113
  WS02006235           JUNCTION      0.00   521.98     0  04:42           0        5.66       0.159
  WS02006238           JUNCTION      0.00   352.94     0  07:12           0        3.29       0.158
  WS02006240           JUNCTION      0.00   358.80     0  07:11           0        3.23       0.321
  WS02006242           JUNCTION      0.00   363.25     0  07:11           0         3.2       0.409
  WS02006243           JUNCTION      0.00   369.63     0  04:11           0        3.18       0.041
  WS02006245           JUNCTION      0.00   374.12     0  04:11           0        3.18       0.373
  WS02006247           JUNCTION      0.00   378.43     0  04:10           0        3.19       0.212
  WS02006248           JUNCTION      0.00   382.99     0  04:10           0        3.19       0.115
  WS02006249           JUNCTION      0.00   412.86     0  06:09           0        3.22       0.332
  WS02006239           JUNCTION      0.00   354.40     0  07:12           0        3.25      -0.015
  WS02006251           JUNCTION      0.08   403.43     0  06:10     0.00217        3.27       0.261
  WS02006252           JUNCTION      0.00   399.98     0  07:10           0        3.06       0.014
  WS02006253           JUNCTION      1.48    58.18     0  06:07     0.00387       0.207       1.992
  WS02006256           JUNCTION      0.00   983.00     0  02:30           0        4.48      -0.022
  WS02004138           JUNCTION      0.00   380.00     0  00:00           0        7.87       0.023
  WS02004139           JUNCTION      0.32   395.85     0  00:00     0.00905        7.87       0.215
  WS02004407           JUNCTION      0.00   546.74     0  04:45           0        6.64       0.090
  WS02006228           JUNCTION      0.00   548.76     0  04:39           0        6.81       0.205
  WS02006229           JUNCTION      0.00   547.11     0  04:40           0        6.82       0.201
  WS02006280           JUNCTION      0.00   239.18     0  02:13           0           1       0.007
  WS02006284           JUNCTION      0.10   239.16     0  02:13      0.0027           1       0.116
  WS02006287           JUNCTION      0.00   239.03     0  02:13           0           1       0.071
  WSF200               JUNCTION      0.00   544.01     0  04:48           0        6.53       0.054
  HS02004901           JUNCTION     12.53    12.53     0  02:07       0.036      0.0362       5.109
  HS02004881           JUNCTION      5.17    46.30     0  02:12      0.0157       0.166       0.060
  HS02004876           JUNCTION      8.53    41.37     0  02:13      0.0301        0.15       0.350
  HS02004870           JUNCTION      9.26    33.03     0  02:13      0.0297        0.12       0.089
  HS02004862           JUNCTION      7.84    24.34     0  02:13      0.0354      0.0908       0.183
  HS02004856           JUNCTION      6.89    16.58     0  02:13      0.0224      0.0568       2.595
  HS02004852           JUNCTION      0.00    10.10     0  02:12           0      0.0345       0.146
  HS02004848           JUNCTION     15.89    15.89     0  02:15      0.0711      0.0711       0.062
  HS02004842           JUNCTION      0.00     6.26     0  02:23           0      0.0496      35.518
  HS02004837           JUNCTION     21.42    26.87     0  02:12       0.231       0.267       0.305
  HS02004830           JUNCTION      0.15    26.99     0  02:12     0.00423       0.258       0.480
  HS02004824           JUNCTION     17.98    44.82     0  02:15      0.0931        0.35       0.154
  HS02004817           JUNCTION      0.60    45.41     0  02:15      0.0169       0.366       4.770
  HS02004807           JUNCTION     17.35    61.42     0  02:14      0.0547       0.404       1.057
  HS02004802           JUNCTION      0.00    61.74     0  02:15           0         0.4       1.023
  HS02004799           JUNCTION     13.49   151.33     0  02:10      0.0443       0.529       0.449
  HS02004792           JUNCTION     59.47   138.06     0  02:10       0.192       0.485       0.086
  HS02004788           JUNCTION     20.05    80.31     0  02:11       0.109       0.294       0.133
  HS02004785           JUNCTION      0.15    60.61     0  02:10     0.00423       0.187       0.257
  HS02004777           JUNCTION      0.03    60.90     0  02:09    0.000846       0.187       2.841
  HS02004770           JUNCTION     50.18    61.83     0  02:08       0.154       0.188       1.673
  HS02004480           JUNCTION      0.00   178.55     0  02:11           0       0.618       0.118
  HS02004479           JUNCTION      0.00    27.84     0  02:13           0       0.102       0.721
  HS02004478           JUNCTION      0.00   239.01     0  02:13           0           1       0.059
  YS02001745           JUNCTION     89.56   151.39     0  03:20       0.981       0.996       0.799
  YS02001748           JUNCTION      0.04   205.34     0  03:20     0.00127        0.99       2.204
  YS02001751           JUNCTION      0.01   182.15     0  03:21     0.00031       0.953       2.435
  YS02001754           JUNCTION      0.26   127.53     0  03:17     0.00733       0.938       2.724
  YS02001762           JUNCTION      0.00   131.21     0  03:06           0        1.06       2.036
  YS02001765           JUNCTION      0.00   128.70     0  03:06           0        1.06       2.362
  YS02001767           JUNCTION      0.54   132.35     0  02:31      0.0151        1.08       3.431
  YS02001770           JUNCTION    115.65   128.71     0  02:36        1.14        1.15       2.851
  YS02001774           JUNCTION      0.00    38.83     0  02:25           0      0.0622      69.348
  YS02001779           JUNCTION      0.01    23.80     0  02:25    0.000141      0.0244     166.705
  YS02001882           JUNCTION      0.00     4.23     0  02:04           0     0.00614      39.421
  YS02001884           JUNCTION      0.00    11.84     0  02:04           0      0.0241      26.139
  YS02001759           JUNCTION    113.32   236.46     0  02:39        1.06        2.09       1.116
  YS02001887           JUNCTION    149.78   152.56     0  02:33        1.26        1.27       0.577
  YS02001890           JUNCTION      0.00   151.80     0  02:33           0        1.24       0.647
  YS02001898           JUNCTION      0.00   150.49     0  02:32           0        1.23       0.188
  YS02001901           JUNCTION      0.00   150.08     0  02:34           0        1.23       0.464
  YS02001904           JUNCTION      0.00   149.05     0  02:36           0        1.23       0.430
  YS02001907           JUNCTION      0.00   268.94     0  02:51           0        2.64       0.851
  YS02001910           JUNCTION      0.00   122.61     0  02:52           0        1.43       0.729
  YS02001915           JUNCTION     80.40   121.32     0  02:56       0.836        1.43       0.329
  YS02001918           JUNCTION      0.00    41.33     0  03:03           0       0.596       0.207
  YS02001619           JUNCTION     78.12    78.12     0  02:46       0.826       0.826       1.449
  YS02001629           JUNCTION      0.00   156.38     0  03:17           0       0.747       3.878
  YS02001641           JUNCTION      0.00   161.37     0  02:49           0        1.61       1.338
  YS02001644           JUNCTION     85.06   246.74     0  02:50       0.941        2.52       1.051
  YS02001652           JUNCTION      0.00   117.93     0  03:13           0       0.869       2.758
  YS02001655           JUNCTION      0.15   172.85     0  03:12     0.00434       0.893       2.751
  YS02001920           JUNCTION      2.87    41.21     0  03:01      0.0809       0.598       0.361
  YS02001923           JUNCTION      0.04    38.35     0  03:01     0.00106       0.517       0.064
  YS02001926           JUNCTION      0.05    38.35     0  03:01     0.00147       0.518       0.449
  YS02001929           JUNCTION     38.30    38.30     0  03:01       0.517       0.517       0.062
  YS02001658           JUNCTION      0.00   205.45     0  03:17           0       0.923       2.116
  YS02001661           JUNCTION      0.00   269.56     0  04:33           0        1.26       1.022
  YS02001664           JUNCTION    106.06   238.75     0  04:34       0.923        1.25       0.233
  YS02001622           JUNCTION      0.00   106.87     0  03:17           0       0.815       4.025
  YS02001633           JUNCTION     86.43   166.24     0  02:46       0.969        1.67       1.960
  YS02001649           JUNCTION      0.00   348.48     0  02:47           0         3.3       1.145
  YS02001757           JUNCTION      0.00   654.95     0  02:47           0         6.2       1.504
  YS02001895           JUNCTION      0.00   150.38     0  02:32           0        1.23       0.310
  YS02001625           JUNCTION      0.00   156.32     0  03:17           0       0.785       5.260
  YS02163301           JUNCTION      0.00    80.40     0  02:42           0       0.727       3.443
  YS02163601           JUNCTION      0.11   165.28     0  02:46      0.0031        1.63       1.883
  YS02164001           JUNCTION      0.00   164.15     0  02:46           0        1.61       1.267
  YS02001647           JUNCTION      0.00   246.94     0  02:47           0        2.48       1.162
  YSB1154              JUNCTION     15.18    15.18     0  02:10      0.0537      0.0549       2.704
  YSB6556              JUNCTION      0.00    15.08     0  02:12           0      0.0558       2.282
  YSB1174              JUNCTION     14.06    14.06     0  02:06      0.0391      0.0398       3.336
  YSB1171              JUNCTION      0.00    27.76     0  02:12           0       0.101       6.675
  YS02006553           JUNCTION      0.00   268.93     0  02:47           0        2.63       0.551
  YS02006561           JUNCTION      0.00   410.33     0  02:48           0        3.73       0.026
  YS02006556           JUNCTION      0.00   268.91     0  02:47           0        2.63       0.399
  YS02006558           JUNCTION    126.38   392.70     0  02:47        1.15        3.75       0.115
  YS02001783           JUNCTION      0.00   392.63     0  02:47           0        3.73       0.042
  YS02001784           JUNCTION      1.06   412.75     0  03:06      0.0299        3.75       0.068
  YS02001786           JUNCTION      0.06   412.48     0  03:07     0.00159        3.75       0.068
  YS02001788           JUNCTION      0.07   428.33     0  03:07       0.002        3.75       0.038
  YS02001790           JUNCTION      0.15   490.84     0  03:16     0.00437        3.76       0.032
  YS02001791           JUNCTION      0.00   545.35     0  03:17           0        3.76       0.020
  YS02001793           JUNCTION      0.00   585.18     0  03:17           0        3.76      -0.101
  WSC                  OUTFALL       0.00   915.08     0  06:20           0          15       0.000
  JK-storage           STORAGE       0.00   601.60     0  03:00           0        3.91     -19.045
  CC-storage           STORAGE       0.00   654.80     0  02:46           0        6.11       0.948
  XR-storage           STORAGE     361.41   361.41     0  02:47        7.56        8.16      -2.211
  
  
  **********************
  Node Surcharge Summary
  **********************
  
  Surcharging occurs when water rises above the top of the highest conduit.
  ---------------------------------------------------------------------
                                               Max. Height   Min. Depth
                                   Hours       Above Crown    Below Rim
  Node                 Type      Surcharged         Meters       Meters
  ---------------------------------------------------------------------
  WS02006109           JUNCTION        1.49          0.174        1.646
  WS02006110           JUNCTION        0.24          0.023        1.827
  WS02006112           JUNCTION        0.37          0.073        1.607
  WS02006230           JUNCTION        0.18          0.040        1.530
  WS02006231           JUNCTION        0.36          0.161        1.369
  WS02006232           JUNCTION        1.17          0.367        1.113
  WS02006234           JUNCTION        0.97          0.356        0.884
  WS02006235           JUNCTION        1.09          0.458        0.832
  WS02006238           JUNCTION        1.11          0.474        0.956
  WS02006240           JUNCTION        0.92          0.425        0.965
  WS02006242           JUNCTION        0.96          0.490        0.330
  WS02006243           JUNCTION        0.62          0.425        0.345
  WS02006245           JUNCTION        0.48          0.416        0.434
  WS02006247           JUNCTION        0.49          0.431        0.329
  WS02006248           JUNCTION        0.36          0.364        0.016
  WS02006249           JUNCTION        0.38          0.390        0.000
  WS02006239           JUNCTION        0.98          0.436        0.854
  WS02006251           JUNCTION        0.16          0.202        0.978
  WS02006252           JUNCTION        1.21          0.381        0.719
  WS02006253           JUNCTION        0.17          0.246        2.234
  WS02006256           JUNCTION        6.42          2.050        0.000
  WS02006228           JUNCTION        1.47          0.206        1.994
  YS02001748           JUNCTION        3.21          0.166        1.024
  YS02001751           JUNCTION        4.41          0.450        0.750
  YS02001754           JUNCTION        4.83          0.681        0.469
  YS02001762           JUNCTION        5.40          0.945        0.205
  YS02001765           JUNCTION        5.35          0.904        0.196
  YS02001767           JUNCTION        5.30          0.885        0.145
  YS02001770           JUNCTION        5.25          0.870        0.050
  YS02001774           JUNCTION        5.38          0.968        0.082
  YS02001779           JUNCTION        4.73          0.680        0.000
  YS02001759           JUNCTION        5.43          0.976        0.234
  YS02001619           JUNCTION        4.34          0.498        0.112
  YS02001629           JUNCTION        4.34          0.470        0.000
  YS02001641           JUNCTION        5.37          0.944        0.156
  YS02001644           JUNCTION        5.37          0.920        0.000
  YS02001652           JUNCTION        4.91          0.742        0.388
  YS02001655           JUNCTION        4.47          0.633        0.567
  YS02001658           JUNCTION        3.16          0.466        0.834
  YS02001622           JUNCTION        4.38          0.513        0.107
  YS02001633           JUNCTION        5.34          0.932        0.128
  YS02001649           JUNCTION        5.41          0.956        0.094
  YS02001757           JUNCTION        5.52          1.079        0.131
  YS02001625           JUNCTION        5.03          0.780        0.000
  YS02163301           JUNCTION        5.28          0.896        0.134
  YS02163601           JUNCTION        5.40          1.005        0.075
  YS02164001           JUNCTION        5.35          0.938        0.162
  YS02001647           JUNCTION        4.97          0.739        0.161
  YS02001790           JUNCTION        0.21          0.439        0.718
  YS02001791           JUNCTION        0.23          0.437        1.483
  YS02001793           JUNCTION        0.41          0.858        1.742
  
  
  *********************
  Node Flooding Summary
  *********************
  
  Flooding refers to all water that overflows a node, whether it ponds or not.
  --------------------------------------------------------------------------
                                                             Total   Maximum
                                 Maximum   Time of Max       Flood    Ponded
                        Hours       Rate    Occurrence      Volume     Depth
  Node                 Flooded       LPS   days hr:min    10^6 ltr    Meters
  --------------------------------------------------------------------------
  WS02006249              0.14     81.12      0  06:09       0.022     0.000
  WS02006256              2.16    737.94      0  02:33       2.038     0.000
  YS02001779              0.01      4.52      0  06:12       0.000     0.000
  YS02001629              0.01      7.53      0  05:00       0.000     0.000
  YS02001644              0.01      4.52      0  05:00       0.000     0.000
  YS02001625              0.02     16.11      0  05:00       0.000     0.000
  JK-storage              0.14    420.11      0  03:07       0.141     0.000
  
  
  **********************
  Storage Volume Summary
  **********************
  
  --------------------------------------------------------------------------------------------------
                         Average     Avg  Evap Exfil       Maximum     Max    Time of Max    Maximum
                          Volume    Pcnt  Pcnt  Pcnt        Volume    Pcnt     Occurrence    Outflow
  Storage Unit           1000 m3    Full  Loss  Loss       1000 m3    Full    days hr:min        LPS
  --------------------------------------------------------------------------------------------------
  JK-storage               0.100      34     0     0         0.291     100       0  03:04     983.00
  CC-storage               2.840      18     0     0         3.646      23       0  05:21     399.98
  XR-storage               0.228      25     0     0         0.600      65       0  00:00     380.00
  
  
  ***********************
  Outfall Loading Summary
  ***********************
  
  ---------------------------------------------------------------------------------------------------------------------------------
                         Flow       Avg       Max       Total         Total         Total         Total         Total         Total
                         Freq      Flow      Flow      Volume           COD            SS            TN            TP         NH4-N
  Outfall Node           Pcnt       LPS       LPS    10^6 ltr            kg            kg            kg            kg            kg
  ---------------------------------------------------------------------------------------------------------------------------------
  WSC                   99.98    599.70    915.08      14.993      1839.844      2986.595       150.258        18.357        92.791
  ---------------------------------------------------------------------------------------------------------------------------------
  System                99.98    599.70    915.08      14.993      1839.844      2986.595       150.258        18.357        92.791
  
  
  ********************
  Link Flow Summary
  ********************
  
  -----------------------------------------------------------------------------
                                 Maximum  Time of Max   Maximum    Max/    Max/
                                  |Flow|   Occurrence   |Veloc|    Full    Full
  Link                 Type          LPS  days hr:min     m/sec    Flow   Depth
  -----------------------------------------------------------------------------
  WS02003066WSF200     CONDUIT    544.01     0  04:48      2.80    0.09    0.23
  WS02006287WS02006284 CONDUIT    239.07     0  02:13      1.71    0.11    0.23
  WS02006284WS02006280 CONDUIT    239.18     0  02:13      1.95    0.10    0.21
  WS02006280WS02006229 CONDUIT    239.18     0  02:13      3.13    0.05    0.15
  WS02006229WS02006228 CONDUIT    548.76     0  04:39      1.09    1.82    1.00
  WS02006256WS02006235 CONDUIT    288.92     0  00:00      4.23    3.06    1.00
  WS02006253WS02006251 CONDUIT     57.54     0  06:07      0.52    0.17    1.00
  WS02006252WS02006251 CONDUIT    400.29     0  06:10      3.19    1.47    1.00
  WS02006251WS02006249 CONDUIT    412.86     0  06:09      1.10    1.19    1.00
  WS02006249WS02006248 CONDUIT    382.99     0  04:10      1.14    2.10    1.00
  WS02006248WS02006247 CONDUIT    378.43     0  04:10      1.11    0.82    1.00
  WS02006247WS02006245 CONDUIT    374.12     0  04:11      1.08    2.97    1.00
  WS02006245WS02006243 CONDUIT    369.63     0  04:11      1.10    1.09    1.00
  WS02006243WS02006242 CONDUIT    363.25     0  07:11      1.01    0.78    1.00
  WS02006242WS02006240 CONDUIT    358.80     0  07:11      0.97    1.43    1.00
  WS02006240WS02006239 CONDUIT    354.40     0  07:12      1.00    1.12    1.00
  WS02006239WS02006238 CONDUIT    352.94     0  07:12      0.95    1.13    1.00
  WS02006238WS02006235 CONDUIT    352.55     0  07:12      1.45    0.79    1.00
  WS02006235WS02006234 CONDUIT    521.56     0  04:40      1.36    5.50    1.00
  WS02006234WS02006232 CONDUIT    521.37     0  04:40      1.39    1.05    1.00
  WS02006232WS02006231 CONDUIT    521.25     0  04:42      1.35    1.09    1.00
  WS02006231WS02006230 CONDUIT    521.13     0  04:40      1.35    7.90    1.00
  WS02006230WS02006229 CONDUIT    533.44     0  06:09      1.39   11.87    1.00
  WS02006228WS02006109 CONDUIT    548.87     0  04:39      1.09    2.40    1.00
  WS02006116WS02004401 CONDUIT    547.43     0  04:45      1.00    0.75    0.85
  WS02006115WS02006116 CONDUIT    548.52     0  04:44      1.02    0.70    0.77
  WS02006113WS02006111 CONDUIT    572.17     0  04:39      2.48    0.69    0.47
  WS02006112WS02006115 CONDUIT    556.72     0  04:44      0.77    0.33    0.87
  WS02006111WS02006112 CONDUIT    553.87     0  04:44      1.60    0.26    0.68
  WS02006110WS02006113 CONDUIT    550.86     0  04:39      1.30    0.50    0.79
  WS02006109WS02006110 CONDUIT    549.77     0  04:39      1.09    1.06    1.00
  WS02004411WS02004412 CONDUIT    544.23     0  04:47      0.93    0.77    0.70
  WS02004401WS02004402 CONDUIT    547.03     0  04:45      1.00    0.66    0.87
  WS02004413WS02003067 CONDUIT    543.75     0  04:47      1.12    0.23    0.59
  WS02004412WS02004413 CONDUIT    543.90     0  04:47      0.83    0.36    0.78
  WS02004410WS02004411 CONDUIT    544.74     0  04:46      0.94    0.74    0.69
  WS02004409WS02004410 CONDUIT    545.51     0  04:46      0.96    0.71    0.68
  WS02004407WS02004409 CONDUIT    546.58     0  04:46      1.46    0.19    0.48
  WS02004406WS02004407 CONDUIT    546.74     0  04:45      1.05    0.24    0.63
  WS02004405WS02004406 CONDUIT    546.85     0  04:45      1.10    1.08    0.96
  WS02004404WS02004405 CONDUIT    546.79     0  04:45      1.15    5.36    0.97
  WS02004403WS02004404 CONDUIT    546.67     0  04:45      0.98    0.40    0.93
  WS02004402WS02004403 CONDUIT    546.81     0  04:45      1.02    0.79    0.89
  WS02004139WS02001211 CONDUIT    381.92     0  06:28      0.90    0.48    0.59
  WS02004138WS02004139 CONDUIT    395.52     0  00:00      3.64    0.08    0.44
  WS02003067WS02003066 CONDUIT    543.87     0  04:47      1.21    0.17    0.42
  WS02001213WS02003059 CONDUIT    395.56     0  06:27      0.89    0.65    0.77
  WS02001212WS02001213 CONDUIT    392.73     0  06:28      1.32    0.61    0.47
  WS02001211WS02001212 CONDUIT    391.06     0  06:28      0.78    0.30    0.65
  WS02003072WS02003073 CONDUIT    913.16     0  06:20      1.71    1.97    0.48
  WS02003069WS02003072 CONDUIT    913.14     0  06:19      1.61    0.44    0.50
  WS02003060WS02003069 CONDUIT    913.07     0  06:19      1.85    0.36    0.45
  WS02003059WS02003060 CONDUIT    399.32     0  06:27      0.95    0.26    0.65
  HS02004901HS02004770 CONDUIT     11.87     0  02:10      0.05    0.04    0.34
  HS02004876HS02004881 CONDUIT     41.49     0  02:13      0.64    0.44    0.09
  HS02004870HS02004876 CONDUIT     33.01     0  02:13      0.44    0.02    0.11
  HS02004842HS02004848 CONDUIT      6.26     0  02:23      0.03    0.00    0.28
  HS02004837HS02004842 CONDUIT      6.49     0  02:24      0.42    0.00    0.29
  HS02004830HS02004837 CONDUIT     26.84     0  02:12      0.47    0.03    0.08
  HS02004824HS02004830 CONDUIT     26.99     0  02:13      0.50    0.04    0.08
  HS02004817HS02004824 CONDUIT     44.81     0  02:15      0.17    0.02    0.41
  HS02004770HS02004777 CONDUIT     60.87     0  02:09      0.25    0.11    0.35
  HS02004799HS02004480 CONDUIT    151.10     0  02:11      0.64    0.19    0.34
  HS02004792HS02004799 CONDUIT    137.99     0  02:11      0.73    0.08    0.27
  HS02004788HS02004792 CONDUIT     80.25     0  02:12      0.88    0.05    0.13
  HS02004785HS02004788 CONDUIT     60.53     0  02:11      0.55    0.46    0.16
  HS02004777HS02004785 CONDUIT     60.46     0  02:10      0.30    0.07    0.29
  HS02004480HS02004478 CONDUIT    178.52     0  02:12      1.02    0.75    0.25
  HS02004479HS02004480 CONDUIT     28.08     0  02:14      0.17    0.03    0.33
  HS02004862HS02004870 CONDUIT     24.30     0  02:14      0.50    0.03    0.07
  HS02004848HS02004852 CONDUIT     10.10     0  02:12      0.34    0.01    0.04
  HS02004856HS02004862 CONDUIT     16.54     0  02:13      0.37    0.02    0.06
  HS02004852HS02004856 CONDUIT     10.05     0  02:14      0.15    0.01    0.10
  HS02004802HS02004478 CONDUIT     62.20     0  02:16      0.33    0.05    0.27
  HS02004478WS02006287 CONDUIT    239.03     0  02:13      1.40    0.07    0.19
  HS02004817HS02004807 CONDUIT     46.02     0  02:17      0.12    0.03    0.53
  HS02004807HS02004802 CONDUIT     61.74     0  02:15      0.28    0.12    0.32
  YS02001759YS02001757 CONDUIT    236.88     0  02:39      0.30    0.17    1.00
  YS02001762YS02001759 CONDUIT    133.89     0  03:06      0.17    0.15    1.00
  YS02001765YS02001762 CONDUIT    131.21     0  03:06      0.24    0.12    1.00
  YS02001770YS02001767 CONDUIT    131.82     0  02:31      0.29    0.52    1.00
  YS02001774YS02001770 CONDUIT     38.83     0  02:25      0.13    0.02    1.00
  YS02001779YS02001774 CONDUIT     23.80     0  02:25      0.07    0.01    1.00
  YS02001649YS02001757 CONDUIT    348.02     0  02:47      0.44    0.21    1.00
  YS02001767YS02001765 CONDUIT    128.70     0  03:06      0.27    0.16    1.00
  YS02006561YS02001783 CONDUIT    392.63     0  02:47      1.90    0.20    0.56
  YS02001783YS02001784 CONDUIT    411.69     0  03:06      1.33    0.57    0.85
  YS02001784YS02001785 CONDUIT    412.42     0  03:07      1.42    0.96    0.91
  YS02001788YS02001790 CONDUIT    490.68     0  03:16      1.98    0.36    0.98
  YS02001790YS02001791 CONDUIT    545.35     0  03:17      2.32    0.59    1.00
  YS02001791YS02001793 CONDUIT    585.18     0  03:17      4.70    0.25    1.00
  YS02001910YS02001907 CONDUIT    123.09     0  03:04      0.49    0.07    0.79
  YS02001786YS02001788 CONDUIT    428.26     0  03:07      1.92    0.83    0.92
  YS02001915YS02001910 CONDUIT    122.61     0  02:52      0.45    0.06    0.58
  YS02001918YS02001915 CONDUIT     43.21     0  03:04      0.44    0.02    0.30
  YS02001923YS02001920 CONDUIT     38.34     0  03:01      0.49    0.02    0.16
  YS02001926YS02001923 CONDUIT     38.31     0  03:01      0.54    0.05    0.15
  YS02001929YS02001926 CONDUIT     38.29     0  03:01      0.57    0.02    0.14
  YS02001920YS02001918 CONDUIT     41.33     0  03:03      0.50    0.04    0.17
  YS02001629YS02163301 CONDUIT     80.40     0  02:42      0.11    0.10    1.00
  YS02001619YS02001622 CONDUIT    106.87     0  03:17      0.66    0.16    1.00
  YS02001622YS02001625 CONDUIT    156.32     0  03:17      0.27    0.08    1.00
  YS02001625YS02001629 CONDUIT    156.38     0  03:17      0.26    0.07    1.00
  YS02163301YS02001633 CONDUIT     79.93     0  02:46      0.10    0.08    1.00
  YS02163601YS02164001 CONDUIT    164.15     0  02:46      0.21    0.15    1.00
  YS02164001YS02001641 CONDUIT    161.37     0  02:49      0.21    0.22    1.00
  YS02001641YS02001644 CONDUIT    161.69     0  02:50      0.21    0.52    1.00
  YS02001647YS02001649 CONDUIT    257.10     0  02:47      0.33    0.14    1.00
  YS02006553YS02006556 CONDUIT    268.91     0  02:47      0.37    0.23    0.87
  YS02006556YS02006558 CONDUIT    269.25     0  02:49      0.36    0.21    0.90
  YSB6556YSB1171       CONDUIT     15.36     0  02:14      0.06    0.02    0.60
  YS02001907YS02006553 CONDUIT    268.93     0  02:47      0.30    0.32    0.99
  YS02006558YS02006561 CONDUIT    410.33     0  02:48      2.55    0.91    0.56
  YS02001633YS02163601 CONDUIT    165.17     0  02:46      0.21    0.17    1.00
  YS02001644YS02001647 CONDUIT    246.94     0  02:47      0.31    0.15    1.00
  YS02001745YS02001748 CONDUIT    205.30     0  03:20      1.47    0.08    0.90
  YS02001748YS02001751 CONDUIT    182.14     0  03:21      1.13    0.09    1.00
  YS02001751YS02001754 CONDUIT    127.27     0  03:17      0.90    0.06    1.00
  YS02001754YS02001757 CONDUIT    128.10     0  03:17      0.33    0.05    1.00
  YS02001882YS02001884 CONDUIT      4.23     0  02:04      0.07    0.00    0.52
  YS02001884YS02001887 CONDUIT     11.84     0  02:04      0.05    0.02    0.61
  YS02001890YS02001895 CONDUIT    150.38     0  02:32      0.32    0.07    0.58
  YS02001895YS02001898 CONDUIT    150.49     0  02:32      0.45    0.26    0.45
  YS02001898YS02001901 CONDUIT    150.08     0  02:34      0.36    0.10    0.53
  YS02001901YS02001904 CONDUIT    149.05     0  02:36      0.32    0.23    0.58
  YS02001904YS02001907 CONDUIT    150.16     0  02:34      0.24    0.05    0.74
  YS02001887YS02001890 CONDUIT    151.80     0  02:33      0.27    0.26    0.67
  YS02001652YS02001649 CONDUIT    118.64     0  03:13      0.37    0.06    1.00
  YS02001655YS02001652 CONDUIT    117.93     0  03:13      0.93    0.06    1.00
  YS02001658YS02001655 CONDUIT    172.69     0  03:12      1.30    0.07    1.00
  YS02001661YS02001658 CONDUIT    205.45     0  03:17      1.53    0.08    0.94
  YS02001664YS02001661 CONDUIT    269.56     0  04:33      1.23    0.08    0.66
  YSB1154YSB6556       CONDUIT     15.08     0  02:12      0.19    0.03    0.49
  YSB1174YSB1171       CONDUIT     13.26     0  02:08      0.06    0.02    0.60
  YSB1171HS02004479    CONDUIT     27.84     0  02:13      0.54    0.02    0.47
  HS02004881HS02006253 CONDUIT     46.29     0  02:13      1.78    0.01    0.50
  YS02001793JiankangQianchi CONDUIT    601.60     0  03:00     14.22    0.05    1.00
  YS02001757CaochengTiaoxuchi CONDUIT    654.80     0  02:46      1.26    0.29    1.00
  WSF200WS02003060     CONDUIT    546.12     0  04:47      1.97    0.12    0.33
  1                    CONDUIT    915.08     0  06:20      3.25    0.32    0.39
  CC-Pump-1            PUMP       200.00     0  04:00              1.00
  CC-Pump-2            PUMP       199.99     0  06:10              1.00
  JK-Pump-1            PUMP       300.00     0  00:00              1.00
  JK-Pump-2            PUMP       683.00     0  02:30              1.00
  XR-Pump-1            PUMP        95.00     0  00:00              1.00
  XR-Pump-2            PUMP        95.00     0  00:00              1.00
  XR-Pump-3            PUMP        95.00     0  00:00              1.00
  XR-Pump-4            PUMP        95.00     0  00:00              1.00
  
  
  ***************************
  Flow Classification Summary
  ***************************
  
  -------------------------------------------------------------------------------------
                      Adjusted    ---------- Fraction of Time in Flow Class ---------- 
                       /Actual         Up    Down  Sub   Sup   Up    Down  Norm  Inlet 
  Conduit               Length    Dry  Dry   Dry   Crit  Crit  Crit  Crit  Ltd   Ctrl  
  -------------------------------------------------------------------------------------
  WS02003066WSF200        1.00   0.01  0.02  0.00  0.00  0.97  0.00  0.00  0.83  0.00
  WS02006287WS02006284    1.00   0.03  0.02  0.00  0.82  0.13  0.00  0.00  0.77  0.00
  WS02006284WS02006280    1.00   0.04  0.00  0.00  0.00  0.00  0.00  0.96  0.00  0.00
  WS02006280WS02006229    1.00   0.04  0.00  0.00  0.00  0.00  0.00  0.96  0.00  0.00
  WS02006229WS02006228    1.00   0.00  0.00  0.00  1.00  0.00  0.00  0.00  0.00  0.00
  WS02006256WS02006235    1.00   0.00  0.00  0.00  1.00  0.00  0.00  0.00  0.00  0.00
  WS02006253WS02006251    1.00   0.02  0.02  0.00  0.96  0.00  0.00  0.00  0.00  0.00
  WS02006252WS02006251    1.00   0.20  0.00  0.00  0.01  0.00  0.78  0.00  0.00  0.00
  WS02006251WS02006249    1.00   0.00  0.00  0.00  1.00  0.00  0.00  0.00  0.38  0.00
  WS02006249WS02006248    1.00   0.00  0.01  0.00  0.88  0.00  0.11  0.00  0.00  0.00
  WS02006248WS02006247    1.00   0.01  0.00  0.00  0.99  0.00  0.00  0.00  0.23  0.00
  WS02006247WS02006245    1.00   0.00  0.00  0.00  1.00  0.00  0.00  0.00  0.00  0.00
  WS02006245WS02006243    1.00   0.00  0.00  0.00  0.93  0.00  0.00  0.06  0.00  0.00
  WS02006243WS02006242    1.00   0.00  0.00  0.00  1.00  0.00  0.00  0.00  0.33  0.00
  WS02006242WS02006240    1.00   0.00  0.00  0.00  1.00  0.00  0.00  0.00  0.00  0.00
  WS02006240WS02006239    1.00   0.00  0.00  0.00  0.94  0.00  0.00  0.06  0.01  0.00
  WS02006239WS02006238    1.00   0.00  0.00  0.00  1.00  0.00  0.00  0.00  0.19  0.00
  WS02006238WS02006235    1.00   0.00  0.00  0.00  1.00  0.00  0.00  0.00  0.00  0.00
  WS02006235WS02006234    1.00   0.00  0.00  0.00  0.95  0.00  0.05  0.00  0.00  0.00
  WS02006234WS02006232    1.00   0.00  0.00  0.00  1.00  0.00  0.00  0.00  0.15  0.00
  WS02006232WS02006231    1.00   0.00  0.00  0.00  1.00  0.00  0.00  0.00  0.00  0.00
  WS02006231WS02006230    1.00   0.00  0.00  0.00  0.46  0.00  0.54  0.00  0.00  0.00
  WS02006230WS02006229    1.00   0.00  0.00  0.00  1.00  0.00  0.00  0.00  0.00  0.00
  WS02006228WS02006109    1.00   0.00  0.00  0.00  1.00  0.00  0.00  0.00  0.00  0.00
  WS02006116WS02004401    1.00   0.01  0.00  0.00  0.99  0.00  0.00  0.00  0.00  0.00
  WS02006115WS02006116    1.00   0.01  0.00  0.00  0.99  0.00  0.00  0.00  0.00  0.00
  WS02006113WS02006111    1.00   0.01  0.00  0.00  0.00  0.99  0.00  0.00  0.20  0.00
  WS02006112WS02006115    1.00   0.01  0.00  0.00  0.99  0.00  0.00  0.00  0.00  0.00
  WS02006111WS02006112    1.00   0.01  0.00  0.00  0.99  0.00  0.00  0.00  0.98  0.00
  WS02006110WS02006113    1.00   0.00  0.00  0.00  0.99  0.00  0.00  0.00  0.00  0.00
  WS02006109WS02006110    1.00   0.00  0.00  0.00  0.99  0.00  0.00  0.00  0.00  0.00
  WS02004411WS02004412    1.00   0.02  0.00  0.00  0.98  0.00  0.00  0.00  0.00  0.00
  WS02004401WS02004402    1.00   0.01  0.00  0.00  0.99  0.00  0.00  0.00  0.00  0.00
  WS02004413WS02003067    1.00   0.02  0.01  0.00  0.00  0.00  0.98  0.00  0.00  0.00
  WS02004412WS02004413    1.00   0.02  0.00  0.00  0.98  0.00  0.00  0.00  0.01  0.00
  WS02004410WS02004411    1.00   0.02  0.00  0.00  0.98  0.00  0.00  0.00  0.00  0.00
  WS02004409WS02004410    1.00   0.02  0.00  0.00  0.98  0.00  0.00  0.00  0.02  0.00
  WS02004407WS02004409    1.00   0.02  0.00  0.00  0.98  0.00  0.00  0.00  0.95  0.00
  WS02004406WS02004407    1.00   0.00  0.02  0.00  0.98  0.00  0.00  0.00  0.00  0.00
  WS02004405WS02004406    1.00   0.00  0.00  0.00  1.00  0.00  0.00  0.00  0.00  0.00
  WS02004404WS02004405    1.00   0.00  0.00  0.00  1.00  0.00  0.00  0.00  0.00  0.00
  WS02004403WS02004404    1.00   0.00  0.01  0.00  0.99  0.00  0.00  0.00  0.00  0.00
  WS02004402WS02004403    1.00   0.01  0.00  0.00  0.99  0.00  0.00  0.00  0.00  0.00
  WS02004139WS02001211    1.00   0.00  0.00  0.00  1.00  0.00  0.00  0.00  0.00  0.00
  WS02004138WS02004139    1.00   0.00  0.00  0.00  1.00  0.00  0.00  0.00  1.00  0.00
  WS02003067WS02003066    1.00   0.02  0.00  0.00  0.97  0.00  0.00  0.00  0.00  0.00
  WS02001213WS02003059    1.00   0.00  0.00  0.00  1.00  0.00  0.00  0.00  0.00  0.00
  WS02001212WS02001213    1.00   0.00  0.00  0.00  0.88  0.00  0.12  0.00  0.00  0.00
  WS02001211WS02001212    1.00   0.00  0.00  0.00  1.00  0.00  0.00  0.00  0.00  0.00
  WS02003072WS02003073    1.00   0.00  0.00  0.00  0.00  0.00  0.00  1.00  0.00  0.00
  WS02003069WS02003072    1.00   0.00  0.00  0.00  1.00  0.00  0.00  0.00  0.18  0.00
  WS02003060WS02003069    1.00   0.00  0.00  0.00  0.99  0.01  0.00  0.00  0.14  0.00
  WS02003059WS02003060    1.00   0.00  0.00  0.00  1.00  0.00  0.00  0.00  0.01  0.00
  HS02004901HS02004770    1.00   0.04  0.00  0.00  0.96  0.00  0.00  0.00  0.01  0.00
  HS02004876HS02004881    1.00   0.01  0.00  0.00  0.99  0.00  0.00  0.00  0.00  0.00
  HS02004870HS02004876    1.00   0.00  0.00  0.00  0.99  0.00  0.00  0.00  0.95  0.00
  HS02004842HS02004848    1.00   0.00  0.04  0.00  0.96  0.00  0.00  0.00  0.65  0.00
  HS02004837HS02004842    1.00   0.00  0.00  0.00  1.00  0.00  0.00  0.00  0.11  0.00
  HS02004830HS02004837    1.00   0.00  0.00  0.00  1.00  0.00  0.00  0.00  0.99  0.00
  HS02004824HS02004830    1.00   0.00  0.00  0.00  1.00  0.00  0.00  0.00  0.00  0.00
  HS02004817HS02004824    1.00   0.00  0.00  0.00  1.00  0.00  0.00  0.00  1.00  0.00
  HS02004770HS02004777    1.00   0.00  0.04  0.00  0.96  0.00  0.00  0.00  0.05  0.00
  HS02004799HS02004480    1.00   0.00  0.01  0.00  0.95  0.00  0.04  0.00  0.00  0.00
  HS02004792HS02004799    1.00   0.00  0.00  0.00  1.00  0.00  0.00  0.00  0.98  0.00
  HS02004788HS02004792    1.00   0.00  0.00  0.00  1.00  0.00  0.00  0.00  0.98  0.00
  HS02004785HS02004788    1.00   0.00  0.00  0.00  1.00  0.00  0.00  0.00  0.00  0.00
  HS02004777HS02004785    1.00   0.00  0.00  0.00  1.00  0.00  0.00  0.00  0.17  0.00
  HS02004480HS02004478    1.00   0.04  0.00  0.00  0.84  0.00  0.00  0.12  0.00  0.00
  HS02004479HS02004480    1.00   0.01  0.00  0.00  0.99  0.00  0.00  0.00  0.15  0.00
  HS02004862HS02004870    1.00   0.00  0.00  0.00  1.00  0.00  0.00  0.00  0.06  0.00
  HS02004848HS02004852    1.00   0.04  0.00  0.00  0.96  0.00  0.00  0.00  0.72  0.00
  HS02004856HS02004862    1.00   0.00  0.06  0.00  0.94  0.00  0.00  0.00  0.77  0.00
  HS02004852HS02004856    1.00   0.04  0.01  0.00  0.96  0.00  0.00  0.00  0.84  0.00
  HS02004802HS02004478    1.00   0.04  0.01  0.00  0.96  0.00  0.00  0.00  0.01  0.00
  HS02004478WS02006287    1.00   0.05  0.00  0.00  0.90  0.05  0.00  0.00  0.76  0.00
  HS02004817HS02004807    1.00   0.00  0.04  0.00  0.96  0.00  0.00  0.00  0.00  0.00
  HS02004807HS02004802    1.00   0.04  0.00  0.00  0.96  0.00  0.00  0.00  0.01  0.00
  YS02001759YS02001757    1.00   0.00  0.00  0.00  1.00  0.00  0.00  0.00  0.18  0.00
  YS02001762YS02001759    1.00   0.00  0.00  0.00  1.00  0.00  0.00  0.00  0.04  0.00
  YS02001765YS02001762    1.00   0.00  0.00  0.00  1.00  0.00  0.00  0.00  0.20  0.00
  YS02001770YS02001767    1.00   0.00  0.00  0.00  1.00  0.00  0.00  0.00  0.00  0.00
  YS02001774YS02001770    1.00   0.00  0.04  0.00  0.96  0.00  0.00  0.00  0.05  0.00
  YS02001779YS02001774    1.00   0.00  0.00  0.00  1.00  0.00  0.00  0.00  0.24  0.00
  YS02001649YS02001757    1.00   0.00  0.00  0.00  1.00  0.00  0.00  0.00  0.18  0.00
  YS02001767YS02001765    1.00   0.00  0.00  0.00  1.00  0.00  0.00  0.00  0.01  0.00
  YS02006561YS02001783    1.00   0.07  0.00  0.00  0.01  0.92  0.00  0.00  0.68  0.00
  YS02001783YS02001784    1.00   0.00  0.07  0.00  0.93  0.00  0.00  0.00  0.01  0.00
  YS02001784YS02001785    1.00   0.00  0.00  0.00  1.00  0.00  0.00  0.00  0.23  0.00
  YS02001788YS02001790    1.00   0.00  0.00  0.00  0.09  0.91  0.00  0.00  0.71  0.00
  YS02001790YS02001791    1.00   0.00  0.00  0.00  0.06  0.94  0.00  0.00  0.56  0.00
  YS02001791YS02001793    1.00   0.00  0.00  0.00  0.14  0.86  0.00  0.00  0.06  0.00
  YS02001910YS02001907    1.00   0.00  0.00  0.00  0.99  0.00  0.00  0.01  0.13  0.00
  YS02001786YS02001788    1.00   0.00  0.00  0.00  0.09  0.91  0.00  0.00  0.00  0.00
  YS02001915YS02001910    1.00   0.00  0.00  0.00  0.99  0.01  0.00  0.00  0.22  0.00
  YS02001918YS02001915    1.00   0.00  0.00  0.00  0.99  0.01  0.00  0.00  0.74  0.00
  YS02001923YS02001920    1.00   0.00  0.00  0.00  1.00  0.00  0.00  0.00  1.00  0.00
  YS02001926YS02001923    1.00   0.00  0.02  0.00  0.00  0.00  0.98  0.00  0.00  0.00
  YS02001929YS02001926    1.00   0.00  0.04  0.00  0.96  0.00  0.00  0.00  0.87  0.00
  YS02001920YS02001918    1.00   0.00  0.00  0.00  1.00  0.00  0.00  0.00  0.00  0.00
  YS02001629YS02163301    1.00   0.05  0.00  0.00  0.94  0.00  0.00  0.00  0.00  0.00
  YS02001619YS02001622    1.00   0.04  0.00  0.00  0.96  0.00  0.00  0.00  0.00  0.00
  YS02001622YS02001625    1.00   0.04  0.00  0.00  0.96  0.00  0.00  0.00  0.11  0.00
  YS02001625YS02001629    1.00   0.04  0.03  0.00  0.92  0.00  0.02  0.00  0.00  0.00
  YS02163301YS02001633    1.00   0.00  0.05  0.00  0.95  0.00  0.00  0.00  0.00  0.00
  YS02163601YS02164001    1.00   0.00  0.03  0.00  0.97  0.00  0.00  0.00  0.00  0.00
  YS02164001YS02001641    1.00   0.00  0.02  0.00  0.97  0.00  0.00  0.00  0.07  0.00
  YS02001641YS02001644    1.00   0.00  0.00  0.00  1.00  0.00  0.00  0.00  0.00  0.00
  YS02001647YS02001649    1.00   0.00  0.06  0.00  0.94  0.00  0.00  0.00  0.01  0.00
  YS02006553YS02006556    1.00   0.01  0.00  0.00  0.99  0.00  0.00  0.00  0.03  0.00
  YS02006556YS02006558    1.00   0.00  0.00  0.00  1.00  0.00  0.00  0.00  0.00  0.00
  YSB6556YSB1171          1.00   0.02  0.02  0.00  0.96  0.00  0.00  0.00  0.00  0.00
  YS02001907YS02006553    1.00   0.00  0.01  0.00  0.99  0.00  0.00  0.00  0.00  0.00
  YS02006558YS02006561    1.00   0.06  0.00  0.00  0.00  0.93  0.00  0.00  0.72  0.00
  YS02001633YS02163601    1.00   0.00  0.00  0.00  1.00  0.00  0.00  0.00  0.18  0.00
  YS02001644YS02001647    1.00   0.00  0.06  0.00  0.94  0.00  0.00  0.00  0.00  0.00
  YS02001745YS02001748    1.00   0.00  0.00  0.00  0.90  0.01  0.00  0.10  0.09  0.00
  YS02001748YS02001751    1.00   0.00  0.00  0.00  0.97  0.03  0.00  0.00  0.20  0.00
  YS02001751YS02001754    1.00   0.00  0.00  0.00  0.93  0.00  0.00  0.07  0.02  0.00
  YS02001754YS02001757    1.00   0.00  0.00  0.00  1.00  0.00  0.00  0.00  0.24  0.00
  YS02001882YS02001884    1.00   0.05  0.00  0.00  0.95  0.00  0.00  0.00  0.00  0.00
  YS02001884YS02001887    1.00   0.02  0.01  0.00  0.97  0.00  0.00  0.00  0.00  0.00
  YS02001890YS02001895    1.00   0.00  0.05  0.00  0.94  0.00  0.00  0.00  0.00  0.00
  YS02001895YS02001898    1.00   0.06  0.00  0.00  0.93  0.00  0.01  0.00  0.00  0.00
  YS02001898YS02001901    1.00   0.06  0.00  0.00  0.94  0.00  0.00  0.00  0.02  0.00
  YS02001901YS02001904    1.00   0.05  0.00  0.00  0.95  0.00  0.00  0.00  0.00  0.00
  YS02001904YS02001907    1.00   0.00  0.05  0.00  0.95  0.00  0.00  0.00  0.00  0.00
  YS02001887YS02001890    1.00   0.00  0.00  0.00  0.99  0.00  0.01  0.00  0.00  0.00
  YS02001652YS02001649    1.00   0.00  0.00  0.00  1.00  0.00  0.00  0.00  0.22  0.00
  YS02001655YS02001652    1.00   0.00  0.00  0.00  0.93  0.00  0.00  0.07  0.02  0.00
  YS02001658YS02001655    1.00   0.00  0.05  0.00  0.92  0.04  0.00  0.00  0.09  0.00
  YS02001661YS02001658    1.00   0.05  0.00  0.00  0.90  0.06  0.00  0.00  0.10  0.00
  YS02001664YS02001661    1.00   0.04  0.00  0.00  0.89  0.07  0.00  0.00  0.33  0.00
  YSB1154YSB6556          1.00   0.04  0.00  0.00  0.96  0.00  0.00  0.00  0.02  0.00
  YSB1174YSB1171          1.00   0.02  0.01  0.00  0.97  0.00  0.00  0.00  0.00  0.00
  YSB1171HS02004479       1.00   0.01  0.00  0.00  0.98  0.00  0.00  0.00  0.13  0.00
  HS02004881HS02006253    1.00   0.02  0.00  0.00  0.72  0.00  0.00  0.26  0.43  0.00
  YS02001793JiankangQianchi    1.00   0.00  0.00  0.00  0.71  0.28  0.00  0.00  0.61  0.00
  YS02001757CaochengTiaoxuchi    1.00   0.00  0.08  0.00  0.92  0.00  0.00  0.00  0.00  0.00
  WSF200WS02003060        1.00   0.00  0.01  0.00  0.77  0.22  0.00  0.00  0.60  0.00
  1                       1.00   0.00  0.00  0.00  0.00  1.00  0.00  0.00  0.43  0.00
  
  
  *************************
  Conduit Surcharge Summary
  *************************
  
  ----------------------------------------------------------------------------
                                                           Hours        Hours 
                         --------- Hours Full --------   Above Full   Capacity
  Conduit                Both Ends  Upstream  Dnstream   Normal Flow   Limited
  ----------------------------------------------------------------------------
  WS02006229WS02006228        1.47      1.51      1.47      2.91         1.47
  WS02006256WS02006235        5.18      5.19      6.41      3.10         0.01
  WS02006253WS02006251        0.35      0.35      0.37      0.01         0.01
  WS02006252WS02006251        0.47      0.47      1.21      1.01         0.01
  WS02006251WS02006249        0.35      0.35      0.38      0.36         0.09
  WS02006249WS02006248        0.36      0.36      0.38      3.15         0.01
  WS02006248WS02006247        0.38      0.38      0.49      0.01         0.01
  WS02006247WS02006245        0.48      0.52      0.48      3.38         0.48
  WS02006245WS02006243        0.51      0.51      0.62      0.24         0.05
  WS02006243WS02006242        0.67      0.67      0.96      0.01         0.01
  WS02006242WS02006240        0.92      0.92      1.11      1.08         0.01
  WS02006240WS02006239        0.94      0.94      0.98      0.49         0.15
  WS02006239WS02006238        1.06      1.06      1.11      0.53         0.19
  WS02006238WS02006235        1.11      1.11      1.16      0.01         0.01
  WS02006235WS02006234        0.97      0.97      1.09      5.08         0.01
  WS02006234WS02006232        1.02      1.02      1.17      0.25         0.24
  WS02006232WS02006231        0.36      0.36      1.17      0.31         0.01
  WS02006231WS02006230        0.18      0.18      0.40      5.29         0.01
  WS02006230WS02006229        2.13      2.52      2.13      5.70         2.13
  WS02006228WS02006109        1.49      1.62      1.49      4.37         1.49
  WS02006112WS02006115        0.01      0.01      0.37      0.01         0.01
  WS02006111WS02006112        0.01      0.01      3.36      0.01         0.01
  WS02006110WS02006113        0.01      0.01      1.57      0.01         0.01
  WS02006109WS02006110        0.23      0.23      1.62      0.24         0.01
  WS02004405WS02004406        0.01      0.01      0.01      0.29         0.01
  WS02004404WS02004405        0.01      0.01      0.01      5.77         0.01
  WS02003072WS02003073        0.01      0.01      0.01      4.82         0.01
  YS02001759YS02001757        5.43      5.43      5.52      0.01         0.01
  YS02001762YS02001759        5.39      5.39      5.43      0.01         0.01
  YS02001765YS02001762        5.35      5.35      5.40      0.01         0.01
  YS02001770YS02001767        5.30      5.30      5.30      0.01         0.53
  YS02001774YS02001770        5.25      5.25      5.38      0.01         0.01
  YS02001779YS02001774        4.73      4.73      5.38      0.01         0.01
  YS02001649YS02001757        5.41      5.41      5.52      0.01         0.01
  YS02001767YS02001765        5.30      5.30      5.35      0.01         0.01
  YS02001788YS02001790        0.01      0.01      0.21      0.01         0.01
  YS02001790YS02001791        0.21      0.21      0.23      0.01         0.01
  YS02001791YS02001793        0.23      0.23      0.49      0.01         0.01
  YS02001629YS02163301        5.22      5.22      5.28      0.01         0.01
  YS02001619YS02001622        4.34      4.34      4.38      0.01         0.01
  YS02001622YS02001625        4.38      4.38      5.03      0.01         0.01
  YS02001625YS02001629        4.34      4.34      5.03      0.01         0.01
  YS02163301YS02001633        5.28      5.28      5.35      0.01         0.01
  YS02163601YS02164001        5.35      5.35      5.40      0.01         0.01
  YS02164001YS02001641        5.35      5.35      5.37      0.01         0.01
  YS02001641YS02001644        5.37      5.37      5.37      0.01         0.91
  YS02001647YS02001649        4.97      4.97      5.41      0.01         0.01
  YS02001907YS02006553        0.01      0.01      0.52      0.01         0.01
  YS02001633YS02163601        5.34      5.34      5.40      0.01         0.01
  YS02001644YS02001647        4.97      4.97      5.37      0.01         0.01
  YS02001745YS02001748        0.01      0.01      3.21      0.01         0.01
  YS02001748YS02001751        4.04      4.04      4.41      0.01         0.01
  YS02001751YS02001754        4.41      4.41      4.83      0.01         0.01
  YS02001754YS02001757        4.95      4.95      5.52      0.01         0.01
  YS02001652YS02001649        5.02      5.02      5.41      0.01         0.01
  YS02001655YS02001652        4.46      4.46      4.91      0.01         0.01
  YS02001658YS02001655        3.16      3.16      4.46      0.01         0.01
  YS02001661YS02001658        0.01      0.01      3.16      0.01         0.01
  HS02004881HS02006253        0.01      0.01      0.17      0.01         0.01
  YS02001793JiankangQianchi        0.40      0.40      3.40      0.01         0.01
  YS02001757CaochengTiaoxuchi        4.16      4.16      5.52      0.01         0.01
  
  
  ***************
  Pumping Summary
  ***************
  
  ---------------------------------------------------------------------------------------------------------
                                                  Min       Avg       Max     Total     Power    % Time Off
                        Percent   Number of      Flow      Flow      Flow    Volume     Usage    Pump Curve
  Pump                 Utilized   Start-Ups       LPS       LPS       LPS  10^6 ltr     Kw-hr    Low   High
  ---------------------------------------------------------------------------------------------------------
  CC-Pump-1               48.93           2      0.00    184.97    200.00     2.460      2.98    0.0    0.0
  CC-Pump-2               21.28           5      0.00     86.09    199.99     0.600      0.91    0.0    0.0
  JK-Pump-1               44.69           5      0.00    175.49    300.00     2.188     39.20    0.0    0.0
  JK-Pump-2               34.05           4      0.00    197.30    683.00     2.293     43.72    0.0   96.2
  XR-Pump-1               85.10           4      0.00     87.98     95.00     2.081     42.31    0.0    0.0
  XR-Pump-2               85.10           4      0.00     87.98     95.00     2.081     42.31    0.0    0.0
  XR-Pump-3               80.84           6      0.00     80.31     95.00     1.853     37.95    0.0    0.0
  XR-Pump-4               80.84           6      0.00     80.31     95.00     1.853     37.95    0.0    0.0
  
  
  ***************************
  Link Pollutant Load Summary
  ***************************
  
  ------------------------------------------------------------------------------------------
                                 COD            SS            TN            TP         NH4-N
  Link                            kg            kg            kg            kg            kg
  ------------------------------------------------------------------------------------------
  WS02003066WSF200           383.572       650.989        13.744         1.359         7.672
  WS02006287WS02006284       121.688       210.745         6.549         0.744         3.888
  WS02006284WS02006280       122.113       211.430         6.588         0.749         3.912
  WS02006280WS02006229       122.097       211.402         6.588         0.749         3.912
  WS02006229WS02006228       391.166       663.267        13.501         1.311         7.480
  WS02006256WS02006235        74.972       125.090         2.236         0.201         1.208
  WS02006253WS02006251        19.433        35.096         0.528         0.044         0.275
  WS02006252WS02006251       187.882       313.635         4.468         0.341         2.244
  WS02006251WS02006249       202.691       341.027         4.907         0.380         2.478
  WS02006249WS02006248       200.606       337.521         4.856         0.376         2.453
  WS02006248WS02006247       200.458       337.307         4.851         0.375         2.450
  WS02006247WS02006245       200.076       336.681         4.841         0.374         2.445
  WS02006245WS02006243       199.488       335.760         4.821         0.373         2.434
  WS02006243WS02006242       200.015       336.738         4.834         0.374         2.441
  WS02006242WS02006240       200.576       337.837         4.844         0.374         2.446
  WS02006240WS02006239       201.651       339.802         4.870         0.377         2.459
  WS02006239WS02006238       203.736       343.292         4.941         0.384         2.499
  WS02006238WS02006235       204.651       344.742         4.976         0.387         2.519
  WS02006235WS02006234       272.513       457.574         7.010         0.570         3.618
  WS02006234WS02006232       272.041       456.785         7.003         0.570         3.616
  WS02006232WS02006231       271.440       455.781         6.987         0.569         3.608
  WS02006231WS02006230       270.668       454.476         6.970         0.568         3.599
  WS02006230WS02006229       269.999       453.409         6.952         0.566         3.589
  WS02006228WS02006109       390.411       662.053        13.478         1.309         7.467
  WS02006116WS02004401       395.499       670.597        14.110         1.392         7.869
  WS02006115WS02006116       396.628       672.435        14.150         1.396         7.891
  WS02006113WS02006111       396.409       671.574        14.196         1.401         7.922
  WS02006112WS02006115       397.921       674.577        14.202         1.401         7.921
  WS02006111WS02006112       395.862       670.675        14.178         1.400         7.912
  WS02006110WS02006113       397.017       672.584        14.221         1.404         7.936
  WS02006109WS02006110       398.292       674.690        14.276         1.410         7.968
  WS02004411WS02004412       386.936       656.550        13.877         1.372         7.747
  WS02004401WS02004402       394.196       668.448        14.059         1.387         7.840
  WS02004413WS02003067       384.250       652.086        13.765         1.361         7.684
  WS02004412WS02004413       385.632       654.405        13.830         1.368         7.721
  WS02004410WS02004411       387.933       658.181        13.911         1.376         7.767
  WS02004409WS02004410       388.912       659.793        13.948         1.379         7.787
  WS02004407WS02004409       389.649       660.983        13.972         1.382         7.800
  WS02004406WS02004407       389.740       661.097        13.971         1.381         7.799
  WS02004405WS02004406       391.331       663.718        14.040         1.388         7.839
  WS02004404WS02004405       392.354       665.374        14.053         1.389         7.844
  WS02004403WS02004404       391.955       664.767        13.973         1.378         7.792
  WS02004402WS02004403       393.065       666.600        14.017         1.383         7.817
  WS02004139WS02001211      1284.186      2060.569       119.587        14.875        74.523
  WS02004138WS02004139      1284.458      2061.013       119.607        14.877        74.535
  WS02003067WS02003066       383.706       651.210        13.750         1.360         7.676
  WS02001213WS02003059      1330.276      2134.303       124.018        15.429        77.293
  WS02001212WS02001213      1332.955      2138.596       124.272        15.461        77.451
  WS02001211WS02001212      1333.750      2139.870       124.347        15.470        77.498
  WS02003072WS02003073      1825.885      2964.445       148.672        18.154        91.790
  WS02003069WS02003072      1829.190      2969.727       148.990        18.194        91.989
  WS02003060WS02003069      1828.652      2968.908       148.878        18.179        91.916
  WS02003059WS02003060      1331.489      2136.241       124.137        15.444        77.367
  HS02004901HS02004770         3.186         5.799         0.062         0.004         0.028
  HS02004876HS02004881        12.555        23.119         0.354         0.030         0.185
  HS02004870HS02004876         9.652        17.674         0.306         0.027         0.164
  HS02004842HS02004848         1.767         3.123         0.039         0.003         0.018
  HS02004837HS02004842         6.392        10.488         0.507         0.061         0.311
  HS02004830HS02004837        50.189        82.121         4.263         0.525         2.644
  HS02004824HS02004830        50.939        83.323         4.335         0.534         2.689
  HS02004817HS02004824        57.853        96.019         4.506         0.546         2.776
  HS02004770HS02004777        12.326        22.635         0.266         0.017         0.121
  HS02004799HS02004480        50.771        89.065         2.110         0.223         1.198
  HS02004792HS02004799        47.081        81.852         2.089         0.225         1.197
  HS02004788HS02004792        30.318        52.482         1.619         0.181         0.951
  HS02004785HS02004788        13.825        25.044         0.419         0.037         0.217
  HS02004777HS02004785        13.286        24.174         0.370         0.031         0.187
  HS02004480HS02004478        61.360       109.050         2.245         0.229         1.254
  HS02004479HS02004480        14.852        26.779         0.540         0.057         0.309
  HS02004862HS02004870         7.223        12.942         0.257         0.025         0.141
  HS02004848HS02004852         2.142         3.828         0.047         0.003         0.021
  HS02004856HS02004862         4.123         7.648         0.085         0.005         0.040
  HS02004852HS02004856         2.139         3.821         0.047         0.003         0.021
  HS02004802HS02004478        60.641       102.206         4.332         0.518         2.651
  HS02004478WS02006287       121.869       211.044         6.564         0.746         3.897
  HS02004817HS02004807        56.484        93.829         4.376         0.530         2.695
  HS02004807HS02004802        61.267       103.204         4.392         0.526         2.689
  YS02001759YS02001757       125.246       211.064         2.846         0.203         1.423
  YS02001762YS02001759        66.396       112.769         1.680         0.126         0.861
  YS02001765YS02001762        65.887       111.819         1.694         0.128         0.871
  YS02001770YS02001767        63.553       108.016         1.399         0.089         0.683
  YS02001774YS02001770         3.984         6.750         0.097         0.007         0.049
  YS02001779YS02001774         2.684         4.452         0.128         0.014         0.074
  YS02001649YS02001757       182.251       297.529         3.915         0.280         1.876
  YS02001767YS02001765        65.938       111.848         1.709         0.130         0.880
  YS02006561YS02001783       263.434       440.828         7.240         0.621         3.836
  YS02001783YS02001784       263.361       440.722         7.236         0.621         3.834
  YS02001784YS02001785       270.735       452.537         7.950         0.710         4.280
  YS02001788YS02001790       271.416       453.649         8.024         0.719         4.327
  YS02001790YS02001791       272.470       455.359         8.124         0.732         4.389
  YS02001791YS02001793       272.440       455.321         8.119         0.731         4.386
  YS02001910YS02001907        92.091       151.482         3.594         0.348         2.024
  YS02001786YS02001788       270.973       452.930         7.978         0.714         4.298
  YS02001915YS02001910        91.992       151.276         3.549         0.342         1.994
  YS02001918YS02001915        48.509        76.912         2.567         0.288         1.524
  YS02001923YS02001920        28.493        44.890         0.624         0.044         0.310
  YS02001926YS02001923        28.124        44.296         0.586         0.040         0.285
  YS02001929YS02001926        27.849        43.846         0.554         0.036         0.265
  YS02001920YS02001918        48.430        76.796         2.543         0.284         1.509
  YS02001629YS02163301        31.792        52.082         0.715         0.045         0.330
  YS02001619YS02001622        35.112        57.220         0.792         0.049         0.365
  YS02001622YS02001625        34.315        56.057         0.772         0.048         0.356
  YS02001625YS02001629        33.235        54.459         0.746         0.046         0.344
  YS02163301YS02001633        31.846        52.196         0.715         0.045         0.331
  YS02163601YS02164001        89.994       146.288         1.985         0.142         0.961
  YS02164001YS02001641        89.584       145.633         1.964         0.139         0.949
  YS02001641YS02001644        90.168       146.589         1.967         0.139         0.949
  YS02001647YS02001649       144.414       234.138         3.014         0.213         1.445
  YS02006553YS02006556       191.565       319.516         5.599         0.502         3.022
  YS02006556YS02006558       191.512       319.410         5.569         0.498         3.002
  YSB6556YSB1171               7.732        14.083         0.217         0.021         0.119
  YS02001907YS02006553       191.520       319.464         5.593         0.501         3.019
  YS02006558YS02006561       263.455       440.855         7.239         0.621         3.835
  YS02001633YS02163601        90.616       147.205         1.968         0.138         0.947
  YS02001644YS02001647       145.307       235.477         3.034         0.214         1.455
  YS02001745YS02001748        58.337        96.837         1.988         0.178         1.088
  YS02001748YS02001751        57.319        95.102         2.082         0.193         1.155
  YS02001751YS02001754        56.097        93.170         2.023         0.187         1.121
  YS02001754YS02001757        56.780        94.255         2.166         0.207         1.214
  YS02001882YS02001884         0.643         1.021         0.018         0.002         0.010
  YS02001884YS02001887         2.417         3.984         0.061         0.005         0.032
  YS02001890YS02001895       100.599       169.676         2.031         0.156         1.011
  YS02001895YS02001898       100.463       169.481         2.025         0.156         1.008
  YS02001898YS02001901       100.346       169.314         2.022         0.155         1.006
  YS02001901YS02001904       100.374       169.393         2.040         0.158         1.018
  YS02001904YS02001907       101.048       170.515         2.125         0.169         1.072
  YS02001887YS02001890       101.440       170.975         2.094         0.164         1.050
  YS02001652YS02001649        39.580        66.081         0.928         0.069         0.441
  YS02001655YS02001652        40.063        66.861         0.942         0.070         0.448
  YS02001658YS02001655        39.281        65.589         0.843         0.057         0.385
  YS02001661YS02001658        40.935        68.239         0.879         0.059         0.401
  YS02001664YS02001661        51.192        83.887         1.124         0.075         0.511
  YSB1154YSB6556               7.244        13.306         0.156         0.013         0.081
  YSB1174YSB1171               5.279         9.743         0.146         0.014         0.080
  YSB1171HS02004479           14.765        26.649         0.531         0.056         0.303
  HS02004881HS02006253        14.105        26.097         0.378         0.031         0.196
  YS02001793JiankangQianchi       273.439       456.951         8.163         0.736         4.412
  YS02001757CaochengTiaoxuchi       358.728       594.814         8.583         0.652         4.309
  WSF200WS02003060           383.088       650.186        13.735         1.358         7.668
  1                         1839.844      2986.595       150.258        18.357        92.791
  CC-Pump-1                  150.469       251.040         3.579         0.273         1.797
  CC-Pump-2                   37.409        62.590         0.888         0.068         0.446
  JK-Pump-1                   75.484       125.388         2.223         0.198         1.196
  JK-Pump-2                   93.384       157.800         2.707         0.242         1.456
  XR-Pump-1                  340.775       546.832        31.713         3.944        19.761
  XR-Pump-2                  340.775       546.832        31.713         3.944        19.761
  XR-Pump-3                  302.858       485.927        28.221         3.511        17.588
  XR-Pump-4                  302.858       485.927        28.221         3.511        17.588
  

  Analysis begun on:  Sun Jul 11 13:09:44 2021
  Analysis ended on:  Sun Jul 11 13:09:47 2021
  Total elapsed time: 00:00:03