
  EPA STORM WATER MANAGEMENT MODEL - VERSION 5.1 (Build 5.3.0.dev0)
  --------------------------------------------------------------

  WARNING 04: minimum elevation drop used for Conduit WS02004404WS02004405
  WARNING 03: negative offset ignored for Link YS02001904YS02001907
  
  *********************************************************
  NOTE: The summary statistics displayed in this report are
  based on results found at every computational time step,  
  not just on results from each reporting time step.
  *********************************************************
  
  ****************
  Analysis Options
  ****************
  Flow Units ............... LPS
  Process Models:
    Rainfall/Runoff ........ YES
    RDII ................... NO
    Snowmelt ............... NO
    Groundwater ............ NO
    Flow Routing ........... YES
    Ponding Allowed ........ NO
    Water Quality .......... YES
  Infiltration Method ...... HORTON
  Flow Routing Method ...... DYNWAVE
  Surcharge Method ......... EXTRAN
  Starting Date ............ 08/28/2015 08:00:00
  Ending Date .............. 08/28/2015 15:50:00
  Antecedent Dry Days ...... 8.0
  Report Time Step ......... 00:01:00
  Wet Time Step ............ 00:01:00
  Dry Time Step ............ 00:01:00
  Routing Time Step ........ 5.00 sec
  Variable Time Step ....... YES
  Maximum Trials ........... 8
  Number of Threads ........ 4
  Head Tolerance ........... 0.001500 m
  
  
  **************************        Volume         Depth
  Runoff Quantity Continuity     hectare-m            mm
  **************************     ---------       -------
  Total Precipitation ......         2.141         4.687
  Evaporation Loss .........         0.000         0.000
  Infiltration Loss ........         0.486         1.064
  Surface Runoff ...........         1.191         2.607
  Final Storage ............         0.464         1.017
  Continuity Error (%) .....        -0.022
  
  
  **************************           COD            SS            TN            TP         NH4-N
  Runoff Quality Continuity             kg            kg            kg            kg            kg
  **************************    ----------    ----------    ----------    ----------    ----------
  Initial Buildup ..........     41378.656     70582.865      1804.177       168.684      1032.807
  Surface Buildup ..........        14.139        17.023         3.064         0.283         1.815
  Wet Deposition ...........         0.000         0.000         0.000         0.000         0.000
  Sweeping Removal .........         0.000         0.000         0.000         0.000         0.000
  Infiltration Loss ........        19.917        34.140         0.404         0.027         0.189
  BMP Removal ..............         0.000         0.000         0.000         0.000         0.000
  Surface Runoff ...........       641.098      1068.894        13.209         0.847         6.214
  Remaining Buildup ........     40731.575     69496.518      1793.623       168.093      1028.218
  Continuity Error (%) .....         0.000         0.000         0.000         0.000         0.000
  
  
  **************************        Volume        Volume
  Flow Routing Continuity        hectare-m      10^6 ltr
  **************************     ---------     ---------
  Dry Weather Inflow .......         0.616         6.165
  Wet Weather Inflow .......         1.190        11.899
  Groundwater Inflow .......         0.000         0.000
  RDII Inflow ..............         0.000         0.000
  External Inflow ..........         0.102         1.024
  External Outflow .........         1.429        14.293
  Flooding Loss ............         0.211         2.105
  Evaporation Loss .........         0.000         0.000
  Exfiltration Loss ........         0.000         0.000
  Initial Stored Volume ....         0.076         0.761
  Final Stored Volume ......         0.455         4.547
  Continuity Error (%) .....        -5.529
  
  
  **************************           COD            SS            TN            TP         NH4-N
  Quality Routing Continuity            kg            kg            kg            kg            kg
  **************************    ----------    ----------    ----------    ----------    ----------
  Dry Weather Inflow .......      1541.201      2465.922       147.955        18.494        92.472
  Wet Weather Inflow .......       640.867      1068.540        13.204         0.846         6.212
  Groundwater Inflow .......         0.000         0.000         0.000         0.000         0.000
  RDII Inflow ..............         0.000         0.000         0.000         0.000         0.000
  External Inflow ..........       183.418       293.469        17.608         2.201        11.005
  External Outflow .........      1745.624      2826.105       144.497        17.685        89.322
  Flooding Loss ............        99.699       166.087         2.944         0.264         1.586
  Exfiltration Loss ........         0.000         0.000         0.000         0.000         0.000
  Mass Reacted .............         0.000         0.000         0.000         0.000         0.000
  Initial Stored Mass ......         0.000         0.000         0.000         0.000         0.000
  Final Stored Mass ........       352.256       564.084        20.456         2.321        12.199
  Continuity Error (%) .....         7.098         7.097         6.080         5.904         6.000
  
  
  *************************
  Highest Continuity Errors
  *************************
  Node YS02001774 (41.08%)
  Node HS02004842 (28.03%)
  Node JK-storage (-25.67%)
  Node YS02001884 (22.16%)
  Node YSB1171 (6.87%)
  
  
  ***************************
  Time-Step Critical Elements
  ***************************
  Link WS02006252WS02006251 (59.13%)
  Link WS02006280WS02006229 (11.44%)
  Link WS02006238WS02006235 (8.53%)
  Link YS02001793JiankangQianchi (8.14%)
  Link WS02004404WS02004405 (2.57%)
  
  
  ********************************
  Highest Flow Instability Indexes
  ********************************
  Link WS02006113WS02006111 (56)
  Link WS02006111WS02006112 (19)
  Link YS02001779YS02001774 (12)
  Link YS02001774YS02001770 (11)
  Link YS02164001YS02001641 (11)
  
  
  *************************
  Routing Time Step Summary
  *************************
  Minimum Time Step           :     0.23 sec
  Average Time Step           :     1.48 sec
  Maximum Time Step           :     5.00 sec
  Percent in Steady State     :    -0.00
  Average Iterations per Step :     2.96
  Percent Not Converging      :     8.43
  
  
  ***************************
  Subcatchment Runoff Summary
  ***************************
  
  ------------------------------------------------------------------------------------------------------------------------------
                            Total      Total      Total      Total     Imperv       Perv      Total       Total     Peak  Runoff
                           Precip      Runon       Evap      Infil     Runoff     Runoff     Runoff      Runoff   Runoff   Coeff
  Subcatchment                 mm         mm         mm         mm         mm         mm         mm    10^6 ltr      LPS
  ------------------------------------------------------------------------------------------------------------------------------
  sub0                       4.69       0.00       0.00       0.33       4.31       0.00       4.31        0.00     1.55   0.920
  sub1                       4.69       0.00       0.00       0.52       4.09       0.00       4.09        0.03     8.46   0.872
  sub2                       4.69       0.00       0.00       1.73       2.87       0.00       2.87        0.03     7.48   0.613
  sub3                       4.69       0.00       0.00       1.73       2.84       0.00       2.84        0.06    15.27   0.606
  sub4                       4.69       0.00       0.00       0.52       3.95       0.00       3.95        0.08    16.94   0.843
  sub5                       4.69       0.00       0.00       0.33       4.27       0.00       4.27        0.05    15.05   0.911
  sub7                       4.69       0.00       0.00       0.42       4.20       0.00       4.20        0.01     5.26   0.897
  sub8                       4.69       0.00       0.00       0.42       4.20       0.00       4.20        0.03     9.34   0.895
  sub9                       4.69       0.00       0.00       0.42       4.19       0.00       4.19        0.02     6.93   0.895
  sub10                      4.69       0.00       0.00       0.37       4.23       0.00       4.23        0.05    15.02   0.902
  sub11                      4.69       0.00       0.00       0.37       4.25       0.00       4.25        0.05    17.53   0.906
  sub12                      4.69       0.00       0.00       0.61       4.03       0.00       4.03        0.04    14.56   0.860
  sub14                      4.69       0.00       0.00       0.42       4.19       0.00       4.19        0.04    13.54   0.895
  sub15                      4.69       0.00       0.00       1.41       3.22       0.00       3.22        0.06    18.38   0.687
  sub16                      4.69       0.00       0.00       1.55       3.10       0.00       3.10        0.03    12.88   0.662
  sub17                      4.69       0.00       0.00       1.50       3.15       0.00       3.15        0.03    10.44   0.671
  sub22                      4.69       0.00       0.00       2.02       2.63       0.00       2.63        0.17    59.90   0.561
  sub23                      4.69       0.00       0.00       1.73       2.91       0.00       2.91        0.14    50.96   0.621
  sub60                      4.69       0.00       0.00       0.56       2.85       0.00       2.85        0.87    77.71   0.609
  sub61                      4.69       0.00       0.00       0.80       3.05       0.00       3.05        0.94   100.16   0.650
  sub62                      4.69       0.00       0.00       0.37       3.27       0.00       3.27        1.01   101.55   0.698
  sub63                      4.69       0.00       0.00       1.36       2.71       0.00       2.71        0.82    94.52   0.579
  sub64                      4.69       0.00       0.00       0.70       2.73       0.00       2.73        0.83    73.67   0.582
  sub65                      4.69       0.00       0.00       0.61       2.76       0.00       2.76        0.85    74.62   0.590
  sub66                      4.69       0.00       0.00       1.36       2.38       0.00       2.38        0.73    68.08   0.508
  sub67                      4.69       0.00       0.00       0.37       3.59       0.00       3.59        1.11   133.73   0.766
  sub68                      4.69       0.00       0.00       0.66       3.24       0.00       3.24        1.00   111.52   0.692
  sub69                      4.69       0.00       0.00       0.70       3.49       0.00       3.49        0.82   114.03   0.745
  sub70                      4.69       3.57       0.00       2.81       4.31       0.00       4.31        0.99    86.38   0.522
  sub71                      4.69       0.00       0.00       0.37       3.13       0.00       3.13        0.74    70.19   0.668
  sub72                      4.69       0.00       0.00       0.33       2.21       0.00       2.21        0.45    32.46   0.473
  1                          4.69       4.19       0.00       1.31       4.40       0.58       4.98        1.17    81.68   0.561
  2                          4.69       0.00       0.00       2.88       1.05       0.18       1.23        0.49    69.86   0.263
  
  
  ****************************
  Subcatchment Washoff Summary
  ****************************
  
  ------------------------------------------------------------------------------------------
                                 COD            SS            TN            TP         NH4-N
  Subcatchment                    kg            kg            kg            kg            kg
  ------------------------------------------------------------------------------------------
  sub0                         0.673         1.247         0.011         0.001         0.005
  sub1                         2.659         4.951         0.050         0.003         0.024
  sub2                         1.508         2.695         0.034         0.002         0.015
  sub3                         3.598         6.326         0.080         0.005         0.036
  sub4                         5.689        10.439         0.118         0.007         0.057
  sub5                         6.104        11.229         0.107         0.008         0.052
  sub7                         1.435         2.739         0.027         0.002         0.013
  sub8                         2.161         4.198         0.044         0.002         0.021
  sub9                         1.824         3.494         0.036         0.002         0.017
  sub10                        5.098         9.512         0.093         0.006         0.045
  sub11                        5.121         9.715         0.096         0.006         0.046
  sub12                        4.326         8.099         0.077         0.006         0.037
  sub14                        3.859         7.323         0.074         0.005         0.035
  sub15                        4.483         8.093         0.089         0.006         0.041
  sub16                        2.895         5.252         0.056         0.004         0.026
  sub17                        2.640         4.743         0.049         0.004         0.023
  sub22                       13.257        23.455         0.260         0.019         0.119
  sub23                        8.234        15.135         0.185         0.012         0.084
  sub60                       40.952        67.534         0.891         0.050         0.425
  sub61                       52.372        86.229         1.032         0.066         0.494
  sub62                       55.338        92.780         1.164         0.068         0.555
  sub63                       39.560        64.434         0.873         0.058         0.396
  sub64                       48.087        76.272         0.937         0.065         0.442
  sub65                       49.307        78.550         0.969         0.065         0.459
  sub66                       29.470        47.349         0.676         0.041         0.311
  sub67                       83.535       139.298         1.533         0.107         0.737
  sub68                       59.309        98.948         1.211         0.077         0.574
  sub69                       56.419        95.905         1.109         0.074         0.525
  sub70                       83.730       141.850         1.798         0.118         0.826
  sub71                       36.642        61.889         0.828         0.044         0.394
  sub72                       22.890        35.557         0.460         0.029         0.220
  1                           41.402        70.706         0.924         0.061         0.418
  2                            6.672        10.702         0.225         0.013         0.093
  ------------------------------------------------------------------------------------------
  System                     781.247      1306.649        16.116         1.038         7.566
  
  
  ******************
  Node Depth Summary
  ******************
  
  ---------------------------------------------------------------------------------
                                 Average  Maximum  Maximum  Time of Max    Reported
                                   Depth    Depth      HGL   Occurrence   Max Depth
  Node                 Type       Meters   Meters   Meters  days hr:min      Meters
  ---------------------------------------------------------------------------------
  WS02001211           JUNCTION     0.64     0.79     5.63     0  05:16        0.79
  WS02001212           JUNCTION     0.37     0.51     5.57     0  05:19        0.51
  WS02001213           JUNCTION     0.61     0.76     5.52     0  05:19        0.76
  WS02003069           JUNCTION     0.42     0.59     5.17     0  05:18        0.59
  WS02003072           JUNCTION     0.48     0.64     5.02     0  05:19        0.64
  WS02003073           JUNCTION     0.29     0.40     4.46     0  05:14        0.40
  WS02003060           JUNCTION     0.37     0.52     5.45     0  05:18        0.52
  WS02003066           JUNCTION     0.22     0.30     5.85     0  05:10        0.30
  WS02003059           JUNCTION     0.67     0.81     5.50     0  05:18        0.81
  WS02003067           JUNCTION     0.55     0.70     6.02     0  05:09        0.70
  WS02004401           JUNCTION     0.64     0.86     6.86     0  05:15        0.86
  WS02004402           JUNCTION     0.67     0.88     6.84     0  05:15        0.88
  WS02004403           JUNCTION     0.69     0.90     6.83     0  05:16        0.90
  WS02004404           JUNCTION     0.77     0.97     6.82     0  05:16        0.97
  WS02004406           JUNCTION     0.78     0.96     6.79     0  05:16        0.96
  WS02004409           JUNCTION     0.45     0.67     6.44     0  05:08        0.67
  WS02004410           JUNCTION     0.47     0.69     6.41     0  05:08        0.69
  WS02004411           JUNCTION     0.49     0.70     6.38     0  05:09        0.70
  WS02004412           JUNCTION     0.51     0.70     6.34     0  05:09        0.70
  WS02004413           JUNCTION     0.67     0.86     6.33     0  05:09        0.86
  WS02004405           JUNCTION     0.76     0.96     6.81     0  05:16        0.96
  WS02006109           JUNCTION     0.70     0.99     7.61     0  04:51        0.99
  WS02006110           JUNCTION     0.70     0.93     7.52     0  04:51        0.93
  WS02006111           JUNCTION     0.20     0.29     7.00     0  05:15        0.29
  WS02006112           JUNCTION     0.80     1.07     6.95     0  05:15        1.06
  WS02006113           JUNCTION     0.31     0.46     7.35     0  04:52        0.46
  WS02006115           JUNCTION     0.52     0.76     6.90     0  05:15        0.76
  WS02006116           JUNCTION     0.61     0.84     6.88     0  05:15        0.84
  WS02006230           JUNCTION     0.66     1.13     7.88     0  04:51        1.13
  WS02006231           JUNCTION     0.44     0.88     8.00     0  04:51        0.88
  WS02006232           JUNCTION     0.57     1.07     8.11     0  04:51        1.07
  WS02006234           JUNCTION     0.49     1.08     8.24     0  04:51        1.08
  WS02006235           JUNCTION     0.53     1.17     8.33     0  04:51        1.16
  WS02006238           JUNCTION     0.55     1.20     8.35     0  04:51        1.19
  WS02006240           JUNCTION     0.46     1.14     8.44     0  04:51        1.14
  WS02006242           JUNCTION     0.52     1.22     8.49     0  04:50        1.21
  WS02006243           JUNCTION     0.41     1.14     8.56     0  05:08        1.12
  WS02006245           JUNCTION     0.40     1.12     8.60     0  04:50        1.11
  WS02006247           JUNCTION     0.42     1.14     8.64     0  05:08        1.12
  WS02006248           JUNCTION     0.36     1.08     8.67     0  04:50        1.08
  WS02006249           JUNCTION     0.39     1.09     8.69     0  04:50        1.09
  WS02006239           JUNCTION     0.51     1.18     8.39     0  04:51        1.17
  WS02006251           JUNCTION     0.38     1.25     8.92     0  04:50        1.12
  WS02006252           JUNCTION     0.28     0.80     9.05     0  04:50        0.68
  WS02006253           JUNCTION     0.41     1.29     8.93     0  04:50        1.15
  WS02006256           JUNCTION     1.20     2.35     9.28     0  00:00        2.35
  WS02004138           JUNCTION     0.13     0.20     7.45     0  00:00        0.19
  WS02004139           JUNCTION     0.58     0.74     5.65     0  05:17        0.74
  WS02004407           JUNCTION     0.20     0.30     6.61     0  05:16        0.30
  WS02006228           JUNCTION     0.70     1.04     7.69     0  04:51        1.03
  WS02006229           JUNCTION     0.67     1.04     7.73     0  04:51        1.03
  WS02006280           JUNCTION     0.05     0.15     8.42     0  02:13        0.15
  WS02006284           JUNCTION     0.34     0.49     8.89     0  02:13        0.49
  WS02006287           JUNCTION     0.07     0.22     9.18     0  02:12        0.22
  WSF200               JUNCTION     0.20     0.31     5.54     0  05:05        0.31
  HS02004901           JUNCTION     0.10     0.24    10.06     0  02:10        0.24
  HS02004881           JUNCTION     0.00     0.03     9.05     0  02:12        0.03
  HS02004876           JUNCTION     0.03     0.10     9.13     0  02:10        0.10
  HS02004870           JUNCTION     0.01     0.04     9.33     0  02:12        0.04
  HS02004862           JUNCTION     0.01     0.05     9.44     0  02:13        0.05
  HS02004856           JUNCTION     0.07     0.11     9.53     0  02:13        0.11
  HS02004852           JUNCTION     0.00     0.03     9.54     0  02:13        0.03
  HS02004848           JUNCTION     0.00     0.03     9.63     0  02:11        0.03
  HS02004842           JUNCTION     0.33     0.36     9.63     0  02:11        0.36
  HS02004837           JUNCTION     0.02     0.05     9.63     0  02:11        0.05
  HS02004830           JUNCTION     0.03     0.06     9.53     0  02:12        0.06
  HS02004824           JUNCTION     0.02     0.04     9.44     0  02:14        0.04
  HS02004817           JUNCTION     0.42     0.53     9.38     0  02:13        0.53
  HS02004807           JUNCTION     0.10     0.21     9.38     0  02:13        0.21
  HS02004802           JUNCTION     0.14     0.25     9.38     0  02:13        0.25
  HS02004799           JUNCTION     0.09     0.27     9.48     0  02:11        0.27
  HS02004792           JUNCTION     0.02     0.11     9.63     0  02:10        0.11
  HS02004788           JUNCTION     0.01     0.08     9.98     0  02:11        0.08
  HS02004785           JUNCTION     0.03     0.14    10.04     0  02:11        0.14
  HS02004777           JUNCTION     0.12     0.26    10.06     0  02:10        0.26
  HS02004770           JUNCTION     0.09     0.23    10.06     0  02:10        0.23
  HS02004480           JUNCTION     0.05     0.21     9.45     0  02:11        0.21
  HS02004479           JUNCTION     0.09     0.25     9.45     0  02:11        0.25
  HS02004478           JUNCTION     0.04     0.14     9.36     0  02:12        0.14
  YS02001745           JUNCTION     0.38     0.64     8.16     0  04:41        0.64
  YS02001748           JUNCTION     0.75     1.08     8.15     0  04:40        1.07
  YS02001751           JUNCTION     0.93     1.28     8.16     0  04:41        1.27
  YS02001754           JUNCTION     1.17     1.56     8.17     0  04:37        1.55
  YS02001762           JUNCTION     1.37     1.79     8.19     0  04:29        1.79
  YS02001765           JUNCTION     1.32     1.76     8.21     0  04:35        1.75
  YS02001767           JUNCTION     1.28     1.72     8.21     0  04:47        1.71
  YS02001770           JUNCTION     1.28     1.74     8.23     0  04:47        1.71
  YS02001774           JUNCTION     1.35     1.81     8.24     0  04:47        1.78
  YS02001779           JUNCTION     1.10     1.55     8.24     0  04:47        1.52
  YS02001882           JUNCTION     0.26     0.47     7.19     0  02:37        0.47
  YS02001884           JUNCTION     0.35     0.57     7.19     0  02:39        0.57
  YS02001759           JUNCTION     1.40     1.83     8.19     0  04:35        1.82
  YS02001887           JUNCTION     0.43     0.65     7.19     0  02:38        0.65
  YS02001890           JUNCTION     0.46     0.68     7.18     0  02:38        0.68
  YS02001898           JUNCTION     0.23     0.43     7.17     0  02:39        0.43
  YS02001901           JUNCTION     0.35     0.56     7.17     0  02:39        0.56
  YS02001904           JUNCTION     0.33     0.53     7.16     0  02:40        0.53
  YS02001907           JUNCTION     0.65     0.88     7.17     0  02:39        0.88
  YS02001910           JUNCTION     0.44     0.66     7.17     0  02:41        0.66
  YS02001915           JUNCTION     0.25     0.45     7.17     0  02:39        0.45
  YS02001918           JUNCTION     0.07     0.10     7.16     0  02:38        0.10
  YS02001619           JUNCTION     0.89     1.36     8.29     0  04:19        1.34
  YS02001629           JUNCTION     1.23     1.73     8.28     0  04:19        1.71
  YS02001641           JUNCTION     1.33     1.79     8.22     0  04:48        1.76
  YS02001644           JUNCTION     1.34     1.77     8.21     0  04:26        1.76
  YS02001652           JUNCTION     1.18     1.66     8.26     0  04:25        1.58
  YS02001655           JUNCTION     0.96     1.45     8.30     0  04:25        1.33
  YS02001920           JUNCTION     0.17     0.21     7.21     0  03:01        0.21
  YS02001923           JUNCTION     0.06     0.08     7.34     0  03:01        0.08
  YS02001926           JUNCTION     0.14     0.18     7.62     0  03:01        0.18
  YS02001929           JUNCTION     0.06     0.09     7.78     0  03:01        0.09
  YS02001658           JUNCTION     0.70     1.23     8.37     0  04:25        1.04
  YS02001661           JUNCTION     0.48     0.75     8.16     0  04:44        0.75
  YS02001664           JUNCTION     0.09     0.25     8.18     0  04:23        0.24
  YS02001622           JUNCTION     0.91     1.38     8.29     0  04:19        1.37
  YS02001633           JUNCTION     1.32     1.80     8.26     0  04:19        1.78
  YS02001649           JUNCTION     1.37     1.83     8.22     0  04:25        1.78
  YS02001757           JUNCTION     1.50     1.92     8.18     0  04:24        1.90
  YS02001895           JUNCTION     0.23     0.43     7.18     0  02:39        0.43
  YS02001625           JUNCTION     1.18     1.68     8.28     0  04:19        1.66
  YS02163301           JUNCTION     1.26     1.75     8.27     0  04:19        1.73
  YS02163601           JUNCTION     1.37     1.84     8.24     0  04:48        1.82
  YS02164001           JUNCTION     1.31     1.78     8.24     0  04:48        1.75
  YS02001647           JUNCTION     1.17     1.60     8.21     0  04:26        1.57
  YSB1154              JUNCTION     0.23     0.40     9.45     0  02:11        0.40
  YSB6556              JUNCTION     0.12     0.29     9.45     0  02:11        0.29
  YSB1174              JUNCTION     0.18     0.35     9.45     0  02:11        0.35
  YSB1171              JUNCTION     0.38     0.55     9.45     0  02:11        0.55
  YS02006553           JUNCTION     0.66     0.88     7.16     0  02:40        0.88
  YS02006561           JUNCTION     0.13     0.23     6.89     0  02:37        0.23
  YS02006556           JUNCTION     0.63     0.85     7.16     0  02:37        0.85
  YS02006558           JUNCTION     0.68     0.89     7.16     0  02:40        0.89
  YS02001783           JUNCTION     0.22     0.64     6.78     0  02:33        0.60
  YS02001784           JUNCTION     0.25     0.70     6.77     0  02:33        0.68
  YS02001786           JUNCTION     0.22     0.69     6.72     0  02:33        0.69
  YS02001788           JUNCTION     0.16     0.74     6.72     0  02:32        0.70
  YS02001790           JUNCTION     0.20     1.27     6.91     0  02:30        1.01
  YS02001791           JUNCTION     0.15     1.20     6.67     0  02:30        1.15
  YS02001793           JUNCTION     0.15     1.78     6.62     0  02:32        1.77
  WSC                  OUTFALL      0.29     0.40     1.07     0  05:14        0.40
  JK-storage           STORAGE      1.49     5.80     6.60     0  02:32        5.80
  CC-storage           STORAGE      0.80     1.13     8.13     0  04:42        1.13
  XR-storage           STORAGE      1.96     5.61     3.61     0  07:16        5.61
  
  
  *******************
  Node Inflow Summary
  *******************
  
  -------------------------------------------------------------------------------------------------
                                  Maximum  Maximum                  Lateral       Total        Flow
                                  Lateral    Total  Time of Max      Inflow      Inflow     Balance
                                   Inflow   Inflow   Occurrence      Volume      Volume       Error
  Node                 Type           LPS      LPS  days hr:min    10^6 ltr    10^6 ltr     Percent
  -------------------------------------------------------------------------------------------------
  WS02001211           JUNCTION      7.35   389.12     0  05:28       0.207        7.87       0.500
  WS02001212           JUNCTION      0.00   390.78     0  05:27           0        7.83       0.317
  WS02001213           JUNCTION      0.00   392.18     0  05:27           0        7.82       0.318
  WS02003069           JUNCTION      0.32   950.76     0  05:18     0.00902        14.3       0.168
  WS02003072           JUNCTION      0.00   950.71     0  05:18           0        14.3       0.219
  WS02003073           JUNCTION      1.82   952.49     0  05:13      0.0514        14.3       0.240
  WS02003060           JUNCTION     16.53   950.50     0  05:18       0.466        14.4       0.161
  WS02003066           JUNCTION      0.00   546.42     0  05:10           0        6.15       0.030
  WS02003059           JUNCTION      0.00   394.34     0  05:27           0         7.8       0.473
  WS02003067           JUNCTION      0.00   546.42     0  05:09           0        6.15       0.079
  WS02004401           JUNCTION      0.00   548.82     0  05:15           0        6.27       0.180
  WS02004402           JUNCTION      0.00   548.18     0  05:15           0        6.26       0.181
  WS02004403           JUNCTION      0.00   547.82     0  05:15           0        6.24       0.175
  WS02004404           JUNCTION      0.16   547.64     0  05:16     0.00457        6.24       0.143
  WS02004406           JUNCTION      0.00   547.75     0  05:16           0        6.22       0.356
  WS02004409           JUNCTION      0.00   546.69     0  05:16           0        6.19       0.068
  WS02004410           JUNCTION      0.00   546.50     0  05:16           0        6.19       0.098
  WS02004411           JUNCTION      0.00   546.47     0  05:09           0        6.18       0.118
  WS02004412           JUNCTION      0.00   546.44     0  05:09           0        6.18       0.149
  WS02004413           JUNCTION      0.00   546.44     0  05:09           0        6.17       0.255
  WS02004405           JUNCTION      0.04   547.53     0  05:16     0.00107        6.23       0.214
  WS02006109           JUNCTION      1.23   551.89     0  04:51      0.0347        6.29       0.131
  WS02006110           JUNCTION      0.00   552.64     0  04:51           0        6.29       0.125
  WS02006111           JUNCTION      0.00   573.21     0  04:51           0        6.27       0.011
  WS02006112           JUNCTION     10.44   554.28     0  05:15       0.027         6.3       0.305
  WS02006113           JUNCTION      0.00   552.16     0  04:51           0        6.28       0.039
  WS02006115           JUNCTION      0.00   560.87     0  05:15           0        6.28       0.126
  WS02006116           JUNCTION      0.00   550.96     0  05:15           0        6.27       0.104
  WS02006230           JUNCTION     10.28   531.94     0  05:11        0.29        5.36       0.141
  WS02006231           JUNCTION      0.00   521.67     0  05:06           0        5.07      -0.055
  WS02006232           JUNCTION      0.00   522.11     0  04:50           0        5.07       0.111
  WS02006234           JUNCTION      0.00   522.73     0  04:50           0        5.07      -0.061
  WS02006235           JUNCTION      0.00   525.44     0  04:50           0        5.17       0.083
  WS02006238           JUNCTION      0.00   391.32     0  05:50           0        2.99       0.009
  WS02006240           JUNCTION      0.00   391.97     0  05:50           0        2.91       0.024
  WS02006242           JUNCTION      0.00   392.12     0  05:50           0        2.87       0.020
  WS02006243           JUNCTION      0.00   392.25     0  05:50           0        2.83      -0.192
  WS02006245           JUNCTION      0.00   392.42     0  05:50           0        2.83       0.173
  WS02006247           JUNCTION      0.00   392.67     0  05:50           0        2.82       0.002
  WS02006248           JUNCTION      0.00   393.34     0  05:50           0        2.82      -0.035
  WS02006249           JUNCTION      0.00   428.97     0  04:50           0        2.92       0.034
  WS02006239           JUNCTION      0.00   391.42     0  05:50           0        2.95      -0.116
  WS02006251           JUNCTION      0.08   413.59     0  04:50     0.00217        2.96      -0.007
  WS02006252           JUNCTION      0.00   400.00     0  04:50           0        2.76       0.006
  WS02006253           JUNCTION      1.55    83.86     0  06:18     0.00349       0.193      -0.003
  WS02006256           JUNCTION      0.00   983.00     0  02:40           0        4.26      -0.020
  WS02004138           JUNCTION      0.00   380.00     0  00:00           0         7.7       0.072
  WS02004139           JUNCTION      0.32   395.85     0  00:00     0.00905         7.7       0.584
  WS02004407           JUNCTION      0.00   546.93     0  05:16           0         6.2       0.029
  WS02006228           JUNCTION      0.00   550.72     0  04:51           0        6.27       0.102
  WS02006229           JUNCTION      0.00   549.50     0  04:50           0        6.28       0.145
  WS02006280           JUNCTION      0.00   237.52     0  02:13           0       0.924       0.008
  WS02006284           JUNCTION      0.10   237.50     0  02:13      0.0027       0.925       0.124
  WS02006287           JUNCTION      0.00   237.37     0  02:12           0       0.923       0.078
  WSF200               JUNCTION      0.00   546.43     0  05:10           0        6.14       0.019
  HS02004901           JUNCTION     12.88    12.88     0  02:06      0.0325      0.0326       5.692
  HS02004881           JUNCTION      5.26    45.62     0  02:12      0.0142       0.149       0.059
  HS02004876           JUNCTION      8.46    40.66     0  02:12      0.0272       0.135       0.387
  HS02004870           JUNCTION      9.34    32.45     0  02:12      0.0268       0.108       0.098
  HS02004862           JUNCTION      7.68    23.81     0  02:12      0.0324      0.0817       0.203
  HS02004856           JUNCTION      6.93    16.25     0  02:12      0.0202      0.0507       2.919
  HS02004852           JUNCTION      0.00     9.83     0  02:12           0      0.0306       0.162
  HS02004848           JUNCTION     15.27    15.27     0  02:13      0.0639      0.0639       0.068
  HS02004842           JUNCTION      0.00     5.93     0  02:22           0      0.0464      38.942
  HS02004837           JUNCTION     21.37    26.48     0  02:11       0.226       0.259       0.315
  HS02004830           JUNCTION      0.15    26.61     0  02:11     0.00423       0.249       0.496
  HS02004824           JUNCTION     16.99    43.45     0  02:14      0.0838       0.332       0.163
  HS02004817           JUNCTION      0.60    44.04     0  02:14      0.0169       0.348       5.022
  HS02004807           JUNCTION     17.53    60.00     0  02:13      0.0493       0.381       1.121
  HS02004802           JUNCTION      0.00    60.33     0  02:14           0       0.377       1.086
  HS02004799           JUNCTION     13.54   151.30     0  02:10      0.0399       0.481       0.486
  HS02004792           JUNCTION     60.18   138.11     0  02:10       0.174       0.442       0.094
  HS02004788           JUNCTION     20.05    80.35     0  02:11       0.102       0.269       0.146
  HS02004785           JUNCTION      0.15    60.81     0  02:10     0.00423       0.168       0.285
  HS02004777           JUNCTION      0.03    61.29     0  02:09    0.000846       0.169       3.164
  HS02004770           JUNCTION     50.96    62.55     0  02:08       0.139        0.17       1.859
  HS02004480           JUNCTION      0.00   178.25     0  02:11           0       0.562       0.129
  HS02004479           JUNCTION      0.00    27.71     0  02:13           0      0.0928       0.792
  HS02004478           JUNCTION      0.00   237.36     0  02:12           0       0.924       0.063
  YS02001745           JUNCTION     77.71    77.71     0  02:42       0.865       0.865       0.620
  YS02001748           JUNCTION      0.04   131.13     0  03:30     0.00127       0.862       2.189
  YS02001751           JUNCTION      0.01   137.81     0  03:27     0.00031       0.844       2.795
  YS02001754           JUNCTION      0.26    92.44     0  03:20     0.00733       0.827       3.094
  YS02001762           JUNCTION      0.00   108.23     0  02:30           0       0.931       2.400
  YS02001765           JUNCTION      0.00   110.57     0  02:30           0       0.934       2.753
  YS02001767           JUNCTION      0.54   116.97     0  02:37      0.0151       0.955       3.948
  YS02001770           JUNCTION    101.70   121.00     0  02:36        1.01        1.02       3.271
  YS02001774           JUNCTION      0.00    42.77     0  02:10           0      0.0627      69.715
  YS02001779           JUNCTION      0.01    27.35     0  02:35    0.000141      0.0249     161.779
  YS02001882           JUNCTION      0.00     4.19     0  02:06           0     0.00549      43.858
  YS02001884           JUNCTION      0.00    12.41     0  02:03           0       0.022      28.466
  YS02001759           JUNCTION    100.20   208.40     0  02:30       0.941        1.84       1.295
  YS02001887           JUNCTION    134.18   134.18     0  02:29        1.12        1.13       0.635
  YS02001890           JUNCTION      0.00   133.09     0  02:31           0        1.11       0.713
  YS02001898           JUNCTION      0.00   132.35     0  02:35           0         1.1       0.199
  YS02001901           JUNCTION      0.00   132.31     0  02:35           0        1.09       0.508
  YS02001904           JUNCTION      0.00   131.78     0  02:38           0        1.09       0.471
  YS02001907           JUNCTION      0.00   236.42     0  02:38           0        2.34       0.949
  YS02001910           JUNCTION      0.00   105.54     0  02:43           0        1.26       0.810
  YS02001915           JUNCTION     70.21   104.90     0  02:43       0.739        1.27       0.359
  YS02001918           JUNCTION      0.00    35.41     0  03:01           0        0.53       0.217
  YS02001619           JUNCTION     68.08    68.08     0  02:40       0.729       0.729       1.626
  YS02001629           JUNCTION      0.00    97.18     0  03:23           0        0.65       4.425
  YS02001641           JUNCTION      0.00   143.93     0  02:41           0         1.4       1.554
  YS02001644           JUNCTION     73.71   220.00     0  02:41        0.83         2.2       1.210
  YS02001652           JUNCTION      0.00   109.45     0  02:38           0       0.772       3.173
  YS02001655           JUNCTION      0.15   124.11     0  03:23     0.00434       0.796       3.158
  YS02001920           JUNCTION      2.87    35.41     0  03:01      0.0809       0.532       0.388
  YS02001923           JUNCTION      0.04    32.54     0  03:01     0.00106       0.451       0.068
  YS02001926           JUNCTION      0.05    32.51     0  03:01     0.00147       0.452       0.484
  YS02001929           JUNCTION     32.46    32.46     0  03:01       0.451       0.451       0.066
  YS02001658           JUNCTION      0.00   116.48     0  03:33           0       0.811       2.305
  YS02001661           JUNCTION      0.00   127.96     0  04:20           0       0.843       1.232
  YS02001664           JUNCTION     94.52    98.26     0  04:20       0.821       0.843       0.044
  YS02001622           JUNCTION      0.00    76.26     0  02:34           0       0.718       4.578
  YS02001633           JUNCTION     74.82   144.27     0  02:51       0.855        1.46       2.267
  YS02001649           JUNCTION      0.00   314.51     0  02:47           0        2.88       1.335
  YS02001757           JUNCTION      0.00   568.73     0  02:43           0        5.42       1.749
  YS02001895           JUNCTION      0.00   132.36     0  02:35           0         1.1       0.341
  YS02001625           JUNCTION      0.00    97.23     0  03:23           0       0.687       6.088
  YS02163301           JUNCTION      0.00    75.17     0  02:40           0       0.632       4.036
  YS02163601           JUNCTION      0.11   142.72     0  02:46      0.0031        1.42       2.169
  YS02164001           JUNCTION      0.00   142.22     0  02:46           0         1.4       1.496
  YS02001647           JUNCTION      0.00   221.16     0  02:41           0        2.16       1.360
  YSB1154              JUNCTION     15.05    15.05     0  02:09      0.0484      0.0496       3.001
  YSB6556              JUNCTION      0.00    14.88     0  02:11           0      0.0505       2.528
  YSB1174              JUNCTION     14.56    14.56     0  02:06      0.0352       0.036       3.694
  YSB1171              JUNCTION      0.00    27.59     0  02:11           0       0.092       7.374
  YS02006553           JUNCTION      0.00   236.12     0  02:40           0        2.33       0.616
  YS02006561           JUNCTION      0.00   358.54     0  02:37           0        3.31       0.020
  YS02006556           JUNCTION      0.00   236.08     0  02:37           0        2.34       0.444
  YS02006558           JUNCTION    112.40   349.02     0  02:37        1.02        3.33       0.136
  YS02001783           JUNCTION      0.00   349.37     0  02:37           0         3.3       0.047
  YS02001784           JUNCTION      1.06   393.08     0  02:33      0.0299        3.33       0.074
  YS02001786           JUNCTION      0.06   389.40     0  02:37     0.00159        3.33       0.073
  YS02001788           JUNCTION      0.07   446.40     0  02:37       0.002        3.33       0.042
  YS02001790           JUNCTION      0.15   503.23     0  02:36     0.00437        3.33       0.037
  YS02001791           JUNCTION      0.00   558.28     0  02:37           0        3.33       0.018
  YS02001793           JUNCTION      0.00   598.82     0  02:37           0        3.34      -0.044
  WSC                  OUTFALL       0.00   952.47     0  05:14           0        14.3       0.000
  JK-storage           STORAGE       0.00   621.89     0  02:40           0        3.49     -20.427
  CC-storage           STORAGE       0.00   569.34     0  02:43           0        5.33       0.994
  XR-storage           STORAGE     340.31   340.31     0  02:37         7.3         7.9      -2.317
  
  
  **********************
  Node Surcharge Summary
  **********************
  
  Surcharging occurs when water rises above the top of the highest conduit.
  ---------------------------------------------------------------------
                                               Max. Height   Min. Depth
                                   Hours       Above Crown    Below Rim
  Node                 Type      Surcharged         Meters       Meters
  ---------------------------------------------------------------------
  WS02006109           JUNCTION        1.18          0.172        1.648
  WS02006110           JUNCTION        0.48          0.023        1.827
  WS02006112           JUNCTION        0.55          0.071        1.609
  WS02006230           JUNCTION        0.44          0.053        1.517
  WS02006231           JUNCTION        0.59          0.171        1.359
  WS02006232           JUNCTION        1.36          0.372        1.108
  WS02006234           JUNCTION        0.90          0.359        0.881
  WS02006235           JUNCTION        1.12          0.459        0.831
  WS02006238           JUNCTION        1.23          0.482        0.948
  WS02006240           JUNCTION        0.98          0.434        0.956
  WS02006242           JUNCTION        1.18          0.493        0.327
  WS02006243           JUNCTION        0.90          0.425        0.345
  WS02006245           JUNCTION        0.85          0.407        0.443
  WS02006247           JUNCTION        0.90          0.425        0.335
  WS02006248           JUNCTION        0.76          0.361        0.019
  WS02006249           JUNCTION        0.83          0.390        0.000
  WS02006239           JUNCTION        1.03          0.438        0.852
  WS02006251           JUNCTION        0.44          0.216        0.964
  WS02006252           JUNCTION        1.39          0.403        0.697
  WS02006253           JUNCTION        0.45          0.245        2.235
  WS02006256           JUNCTION        6.19          2.050        0.000
  WS02006228           JUNCTION        1.14          0.210        1.990
  YS02001751           JUNCTION        3.27          0.281        0.919
  YS02001754           JUNCTION        4.60          0.514        0.636
  YS02001762           JUNCTION        5.32          0.795        0.355
  YS02001765           JUNCTION        5.24          0.755        0.345
  YS02001767           JUNCTION        5.14          0.720        0.310
  YS02001770           JUNCTION        4.96          0.705        0.215
  YS02001774           JUNCTION        5.29          0.814        0.236
  YS02001779           JUNCTION        4.52          0.554        0.126
  YS02001759           JUNCTION        5.37          0.828        0.382
  YS02001619           JUNCTION        2.35          0.358        0.252
  YS02001629           JUNCTION        2.34          0.349        0.121
  YS02001641           JUNCTION        5.27          0.787        0.313
  YS02001644           JUNCTION        5.28          0.774        0.146
  YS02001652           JUNCTION        4.68          0.634        0.496
  YS02001655           JUNCTION        3.79          0.451        0.749
  YS02001658           JUNCTION        0.09          0.232        1.068
  YS02001622           JUNCTION        2.56          0.382        0.238
  YS02001633           JUNCTION        5.21          0.784        0.276
  YS02001649           JUNCTION        5.33          0.827        0.223
  YS02001757           JUNCTION        5.48          0.924        0.286
  YS02001625           JUNCTION        4.76          0.678        0.102
  YS02163301           JUNCTION        5.04          0.752        0.278
  YS02163601           JUNCTION        5.33          0.845        0.235
  YS02164001           JUNCTION        5.24          0.777        0.323
  YS02001647           JUNCTION        4.73          0.602        0.298
  YS02001790           JUNCTION        0.16          0.470        0.687
  YS02001791           JUNCTION        0.24          0.400        1.520
  YS02001793           JUNCTION        0.38          0.785        1.815
  
  
  *********************
  Node Flooding Summary
  *********************
  
  Flooding refers to all water that overflows a node, whether it ponds or not.
  --------------------------------------------------------------------------
                                                             Total   Maximum
                                 Maximum   Time of Max       Flood    Ponded
                        Hours       Rate    Occurrence      Volume     Depth
  Node                 Flooded       LPS   days hr:min    10^6 ltr    Meters
  --------------------------------------------------------------------------
  WS02006249              0.41    105.94      0  04:50       0.100     0.000
  WS02006256              2.05    789.20      0  04:51       2.002     0.000
  JK-storage              0.03     53.16      0  02:32       0.003     0.000
  
  
  **********************
  Storage Volume Summary
  **********************
  
  --------------------------------------------------------------------------------------------------
                         Average     Avg  Evap Exfil       Maximum     Max    Time of Max    Maximum
                          Volume    Pcnt  Pcnt  Pcnt        Volume    Pcnt     Occurrence    Outflow
  Storage Unit           1000 m3    Full  Loss  Loss       1000 m3    Full    days hr:min        LPS
  --------------------------------------------------------------------------------------------------
  JK-storage               0.075      26     0     0         0.291     100       0  02:32     983.00
  CC-storage               2.216      14     0     0         3.161      20       0  04:42     400.00
  XR-storage               0.236      25     0     0         0.674      73       0  07:16     380.00
  
  
  ***********************
  Outfall Loading Summary
  ***********************
  
  ---------------------------------------------------------------------------------------------------------------------------------
                         Flow       Avg       Max       Total         Total         Total         Total         Total         Total
                         Freq      Flow      Flow      Volume           COD            SS            TN            TP         NH4-N
  Outfall Node           Pcnt       LPS       LPS    10^6 ltr            kg            kg            kg            kg            kg
  ---------------------------------------------------------------------------------------------------------------------------------
  WSC                   99.98    553.87    952.47      14.293      1745.926      2826.589       144.525        17.689        89.339
  ---------------------------------------------------------------------------------------------------------------------------------
  System                99.98    553.87    952.47      14.293      1745.926      2826.589       144.525        17.689        89.339
  
  
  ********************
  Link Flow Summary
  ********************
  
  -----------------------------------------------------------------------------
                                 Maximum  Time of Max   Maximum    Max/    Max/
                                  |Flow|   Occurrence   |Veloc|    Full    Full
  Link                 Type          LPS  days hr:min     m/sec    Flow   Depth
  -----------------------------------------------------------------------------
  WS02003066WSF200     CONDUIT    546.43     0  05:10      2.77    0.09    0.23
  WS02006287WS02006284 CONDUIT    237.40     0  02:13      1.70    0.11    0.23
  WS02006284WS02006280 CONDUIT    237.52     0  02:13      1.94    0.10    0.21
  WS02006280WS02006229 CONDUIT    237.53     0  02:13      3.12    0.05    0.15
  WS02006229WS02006228 CONDUIT    550.72     0  04:51      1.10    1.82    1.00
  WS02006256WS02006235 CONDUIT    288.92     0  00:00      4.23    3.06    1.00
  WS02006253WS02006251 CONDUIT     83.29     0  06:18      0.52    0.25    1.00
  WS02006252WS02006251 CONDUIT    404.77     0  04:50      3.22    1.49    1.00
  WS02006251WS02006249 CONDUIT    428.97     0  04:50      1.11    1.24    1.00
  WS02006249WS02006248 CONDUIT    393.34     0  05:50      1.13    2.15    1.00
  WS02006248WS02006247 CONDUIT    392.67     0  05:50      1.10    0.85    1.00
  WS02006247WS02006245 CONDUIT    392.42     0  05:50      1.07    3.11    1.00
  WS02006245WS02006243 CONDUIT    392.25     0  05:50      1.08    1.16    1.00
  WS02006243WS02006242 CONDUIT    392.12     0  05:50      1.02    0.84    1.00
  WS02006242WS02006240 CONDUIT    391.97     0  05:50      1.02    1.56    1.00
  WS02006240WS02006239 CONDUIT    391.42     0  05:50      1.02    1.23    1.00
  WS02006239WS02006238 CONDUIT    391.32     0  05:50      1.02    1.25    1.00
  WS02006238WS02006235 CONDUIT    391.76     0  05:51      1.45    0.87    1.00
  WS02006235WS02006234 CONDUIT    522.73     0  04:50      1.36    5.52    1.00
  WS02006234WS02006232 CONDUIT    522.11     0  04:50      1.39    1.06    1.00
  WS02006232WS02006231 CONDUIT    521.67     0  05:06      1.36    1.09    1.00
  WS02006231WS02006230 CONDUIT    521.66     0  05:11      1.36    7.91    1.00
  WS02006230WS02006229 CONDUIT    534.94     0  04:50      1.39   11.90    1.00
  WS02006228WS02006109 CONDUIT    550.66     0  04:51      1.10    2.41    1.00
  WS02006116WS02004401 CONDUIT    548.82     0  05:15      1.00    0.76    0.85
  WS02006115WS02006116 CONDUIT    550.96     0  05:15      1.02    0.71    0.77
  WS02006113WS02006111 CONDUIT    573.21     0  04:51      2.48    0.69    0.47
  WS02006112WS02006115 CONDUIT    560.87     0  05:15      0.78    0.33    0.88
  WS02006111WS02006112 CONDUIT    554.22     0  05:15      1.60    0.26    0.68
  WS02006110WS02006113 CONDUIT    552.16     0  04:51      1.30    0.50    0.79
  WS02006109WS02006110 CONDUIT    552.64     0  04:51      1.10    1.06    1.00
  WS02004411WS02004412 CONDUIT    546.44     0  05:09      0.93    0.78    0.70
  WS02004401WS02004402 CONDUIT    548.18     0  05:15      1.00    0.66    0.87
  WS02004413WS02003067 CONDUIT    546.42     0  05:09      1.12    0.23    0.60
  WS02004412WS02004413 CONDUIT    546.44     0  05:09      0.83    0.37    0.78
  WS02004410WS02004411 CONDUIT    546.47     0  05:09      0.94    0.75    0.69
  WS02004409WS02004410 CONDUIT    546.50     0  05:16      0.98    0.71    0.68
  WS02004407WS02004409 CONDUIT    546.69     0  05:16      1.49    0.19    0.49
  WS02004406WS02004407 CONDUIT    546.93     0  05:16      1.05    0.24    0.63
  WS02004405WS02004406 CONDUIT    547.75     0  05:16      1.10    1.08    0.96
  WS02004404WS02004405 CONDUIT    547.49     0  05:16      1.15    5.36    0.97
  WS02004403WS02004404 CONDUIT    547.48     0  05:16      0.98    0.40    0.93
  WS02004402WS02004403 CONDUIT    547.82     0  05:15      1.02    0.79    0.89
  WS02004139WS02001211 CONDUIT    381.77     0  05:28      0.90    0.48    0.60
  WS02004138WS02004139 CONDUIT    395.52     0  00:00      3.64    0.08    0.44
  WS02003067WS02003066 CONDUIT    546.42     0  05:10      1.22    0.18    0.42
  WS02001213WS02003059 CONDUIT    394.34     0  05:27      0.89    0.65    0.78
  WS02001212WS02001213 CONDUIT    392.18     0  05:27      1.32    0.61    0.48
  WS02001211WS02001212 CONDUIT    390.78     0  05:27      0.78    0.30    0.65
  WS02003072WS02003073 CONDUIT    950.67     0  05:13      1.73    2.05    0.49
  WS02003069WS02003072 CONDUIT    950.71     0  05:18      1.63    0.46    0.51
  WS02003060WS02003069 CONDUIT    950.44     0  05:18      1.87    0.37    0.46
  WS02003059WS02003060 CONDUIT    397.31     0  05:26      0.95    0.26    0.67
  HS02004901HS02004770 CONDUIT     11.98     0  02:10      0.05    0.05    0.34
  HS02004876HS02004881 CONDUIT     40.80     0  02:12      0.63    0.43    0.09
  HS02004870HS02004876 CONDUIT     32.42     0  02:12      0.44    0.02    0.11
  HS02004842HS02004848 CONDUIT      5.93     0  02:22      0.03    0.00    0.28
  HS02004837HS02004842 CONDUIT      6.20     0  02:22      0.42    0.00    0.29
  HS02004830HS02004837 CONDUIT     26.46     0  02:11      0.46    0.03    0.08
  HS02004824HS02004830 CONDUIT     26.60     0  02:12      0.50    0.03    0.08
  HS02004817HS02004824 CONDUIT     43.44     0  02:14      0.17    0.02    0.41
  HS02004770HS02004777 CONDUIT     61.26     0  02:09      0.25    0.11    0.35
  HS02004799HS02004480 CONDUIT    151.01     0  02:11      0.64    0.19    0.34
  HS02004792HS02004799 CONDUIT    138.01     0  02:10      0.73    0.08    0.27
  HS02004788HS02004792 CONDUIT     80.26     0  02:11      0.88    0.05    0.13
  HS02004785HS02004788 CONDUIT     60.70     0  02:11      0.55    0.46    0.16
  HS02004777HS02004785 CONDUIT     60.66     0  02:10      0.30    0.07    0.29
  HS02004480HS02004478 CONDUIT    178.23     0  02:11      1.02    0.75    0.25
  HS02004479HS02004480 CONDUIT     28.00     0  02:13      0.16    0.03    0.33
  HS02004862HS02004870 CONDUIT     23.76     0  02:13      0.50    0.03    0.07
  HS02004848HS02004852 CONDUIT      9.83     0  02:12      0.33    0.01    0.04
  HS02004856HS02004862 CONDUIT     16.20     0  02:13      0.37    0.02    0.06
  HS02004852HS02004856 CONDUIT      9.76     0  02:13      0.14    0.01    0.10
  HS02004802HS02004478 CONDUIT     60.84     0  02:15      0.32    0.05    0.27
  HS02004478WS02006287 CONDUIT    237.37     0  02:12      1.40    0.07    0.19
  HS02004817HS02004807 CONDUIT     44.66     0  02:16      0.12    0.03    0.53
  HS02004807HS02004802 CONDUIT     60.33     0  02:14      0.27    0.12    0.32
  YS02001759YS02001757 CONDUIT    208.40     0  02:37      0.27    0.15    1.00
  YS02001762YS02001759 CONDUIT    108.40     0  02:30      0.17    0.12    1.00
  YS02001765YS02001762 CONDUIT    108.23     0  02:30      0.24    0.10    1.00
  YS02001770YS02001767 CONDUIT    116.43     0  02:37      0.29    0.46    1.00
  YS02001774YS02001770 CONDUIT     42.77     0  02:10      0.13    0.03    1.00
  YS02001779YS02001774 CONDUIT     27.34     0  02:35      0.07    0.01    1.00
  YS02001649YS02001757 CONDUIT    315.77     0  02:47      0.40    0.19    1.00
  YS02001767YS02001765 CONDUIT    110.57     0  02:30      0.27    0.14    1.00
  YS02006561YS02001783 CONDUIT    349.37     0  02:37      1.84    0.18    0.54
  YS02001783YS02001784 CONDUIT    392.02     0  02:33      1.29    0.54    0.81
  YS02001784YS02001785 CONDUIT    389.35     0  02:37      1.43    0.91    0.87
  YS02001788YS02001790 CONDUIT    503.07     0  02:36      1.92    0.37    0.96
  YS02001790YS02001791 CONDUIT    558.28     0  02:37      2.29    0.61    1.00
  YS02001791YS02001793 CONDUIT    598.82     0  02:37      4.54    0.26    1.00
  YS02001910YS02001907 CONDUIT    105.70     0  02:42      0.49    0.06    0.76
  YS02001786YS02001788 CONDUIT    446.33     0  02:37      1.93    0.86    0.88
  YS02001915YS02001910 CONDUIT    105.54     0  02:43      0.45    0.05    0.55
  YS02001918YS02001915 CONDUIT     35.40     0  03:02      0.44    0.02    0.27
  YS02001923YS02001920 CONDUIT     32.54     0  03:01      0.46    0.01    0.15
  YS02001926YS02001923 CONDUIT     32.50     0  03:01      0.50    0.05    0.14
  YS02001929YS02001926 CONDUIT     32.46     0  03:01      0.53    0.02    0.13
  YS02001920YS02001918 CONDUIT     35.41     0  03:01      0.47    0.03    0.15
  YS02001629YS02163301 CONDUIT     75.17     0  02:40      0.11    0.09    1.00
  YS02001619YS02001622 CONDUIT     76.26     0  02:34      0.66    0.11    1.00
  YS02001622YS02001625 CONDUIT     97.23     0  03:23      0.26    0.05    1.00
  YS02001625YS02001629 CONDUIT     97.18     0  03:23      0.27    0.05    1.00
  YS02163301YS02001633 CONDUIT     69.90     0  02:51      0.09    0.07    1.00
  YS02163601YS02164001 CONDUIT    142.22     0  02:46      0.18    0.13    1.00
  YS02164001YS02001641 CONDUIT    143.93     0  02:41      0.18    0.20    1.00
  YS02001641YS02001644 CONDUIT    146.30     0  02:41      0.19    0.47    1.00
  YS02001647YS02001649 CONDUIT    228.12     0  02:58      0.29    0.12    1.00
  YS02006553YS02006556 CONDUIT    236.08     0  02:37      0.33    0.20    0.85
  YS02006556YS02006558 CONDUIT    237.42     0  02:37      0.33    0.19    0.87
  YSB6556YSB1171       CONDUIT     15.16     0  02:13      0.06    0.02    0.60
  YS02001907YS02006553 CONDUIT    236.12     0  02:40      0.27    0.28    0.96
  YS02006558YS02006561 CONDUIT    358.54     0  02:37      2.42    0.79    0.52
  YS02001633YS02163601 CONDUIT    142.61     0  02:46      0.18    0.15    1.00
  YS02001644YS02001647 CONDUIT    221.16     0  02:41      0.29    0.13    1.00
  YS02001745YS02001748 CONDUIT    131.09     0  03:30      1.44    0.05    0.81
  YS02001748YS02001751 CONDUIT    137.80     0  03:27      1.13    0.07    1.00
  YS02001751YS02001754 CONDUIT     92.18     0  03:20      0.96    0.04    1.00
  YS02001754YS02001757 CONDUIT     96.57     0  03:20      0.33    0.04    1.00
  YS02001882YS02001884 CONDUIT      4.19     0  02:06      0.07    0.00    0.49
  YS02001884YS02001887 CONDUIT     12.41     0  02:03      0.05    0.02    0.58
  YS02001890YS02001895 CONDUIT    132.36     0  02:35      0.30    0.06    0.55
  YS02001895YS02001898 CONDUIT    132.35     0  02:35      0.45    0.23    0.42
  YS02001898YS02001901 CONDUIT    132.31     0  02:35      0.34    0.09    0.50
  YS02001901YS02001904 CONDUIT    131.78     0  02:38      0.30    0.20    0.55
  YS02001904YS02001907 CONDUIT    132.28     0  02:38      0.22    0.05    0.71
  YS02001887YS02001890 CONDUIT    133.09     0  02:31      0.25    0.23    0.64
  YS02001652YS02001649 CONDUIT    112.72     0  02:50      0.32    0.06    1.00
  YS02001655YS02001652 CONDUIT    109.45     0  02:38      0.99    0.05    1.00
  YS02001658YS02001655 CONDUIT    123.95     0  03:23      1.30    0.05    1.00
  YS02001661YS02001658 CONDUIT    116.48     0  03:33      1.50    0.05    0.84
  YS02001664YS02001661 CONDUIT    127.96     0  04:20      1.17    0.04    0.49
  YSB1154YSB6556       CONDUIT     14.88     0  02:11      0.19    0.03    0.49
  YSB1174YSB1171       CONDUIT     13.44     0  02:07      0.06    0.02    0.60
  YSB1171HS02004479    CONDUIT     27.71     0  02:13      0.54    0.02    0.47
  HS02004881HS02006253 CONDUIT     45.61     0  02:12      1.77    0.01    0.50
  YS02001793JiankangQianchi CONDUIT    621.89     0  02:40     13.77    0.05    1.00
  YS02001757CaochengTiaoxuchi CONDUIT    569.34     0  02:43      1.10    0.25    1.00
  WSF200WS02003060     CONDUIT    546.44     0  05:10      2.02    0.12    0.34
  1                    CONDUIT    952.47     0  05:14      3.28    0.33    0.40
  CC-Pump-1            PUMP       200.00     0  04:20              1.00
  CC-Pump-2            PUMP       200.00     0  04:50              1.00
  JK-Pump-1            PUMP       300.00     0  00:00              1.00
  JK-Pump-2            PUMP       683.00     0  02:40              1.00
  XR-Pump-1            PUMP        95.00     0  00:00              1.00
  XR-Pump-2            PUMP        95.00     0  00:00              1.00
  XR-Pump-3            PUMP        95.00     0  00:00              1.00
  XR-Pump-4            PUMP        95.00     0  00:00              1.00
  
  
  ***************************
  Flow Classification Summary
  ***************************
  
  -------------------------------------------------------------------------------------
                      Adjusted    ---------- Fraction of Time in Flow Class ---------- 
                       /Actual         Up    Down  Sub   Sup   Up    Down  Norm  Inlet 
  Conduit               Length    Dry  Dry   Dry   Crit  Crit  Crit  Crit  Ltd   Ctrl  
  -------------------------------------------------------------------------------------
  WS02003066WSF200        1.00   0.01  0.03  0.00  0.00  0.96  0.00  0.00  0.81  0.00
  WS02006287WS02006284    1.00   0.04  0.02  0.00  0.79  0.15  0.00  0.00  0.77  0.00
  WS02006284WS02006280    1.00   0.05  0.00  0.00  0.00  0.00  0.00  0.95  0.00  0.00
  WS02006280WS02006229    1.00   0.05  0.00  0.00  0.00  0.00  0.00  0.95  0.00  0.00
  WS02006229WS02006228    1.00   0.00  0.00  0.00  0.99  0.00  0.00  0.01  0.00  0.00
  WS02006256WS02006235    1.00   0.00  0.00  0.00  1.00  0.00  0.00  0.00  0.00  0.00
  WS02006253WS02006251    1.00   0.02  0.02  0.00  0.95  0.00  0.01  0.00  0.00  0.00
  WS02006252WS02006251    1.00   0.28  0.00  0.00  0.04  0.00  0.69  0.00  0.00  0.00
  WS02006251WS02006249    1.00   0.00  0.00  0.00  1.00  0.00  0.00  0.00  0.55  0.00
  WS02006249WS02006248    1.00   0.00  0.01  0.00  0.81  0.00  0.18  0.00  0.00  0.00
  WS02006248WS02006247    1.00   0.01  0.00  0.00  0.99  0.00  0.00  0.00  0.35  0.00
  WS02006247WS02006245    1.00   0.01  0.00  0.00  0.99  0.00  0.00  0.00  0.00  0.00
  WS02006245WS02006243    1.00   0.00  0.00  0.00  0.92  0.00  0.00  0.08  0.00  0.00
  WS02006243WS02006242    1.00   0.00  0.00  0.00  1.00  0.00  0.00  0.00  0.42  0.00
  WS02006242WS02006240    1.00   0.00  0.00  0.00  1.00  0.00  0.00  0.00  0.00  0.00
  WS02006240WS02006239    1.00   0.00  0.00  0.00  0.90  0.00  0.00  0.10  0.01  0.00
  WS02006239WS02006238    1.00   0.00  0.00  0.00  1.00  0.00  0.00  0.00  0.22  0.00
  WS02006238WS02006235    1.00   0.00  0.00  0.00  1.00  0.00  0.00  0.00  0.00  0.00
  WS02006235WS02006234    1.00   0.00  0.00  0.00  0.93  0.00  0.07  0.00  0.00  0.00
  WS02006234WS02006232    1.00   0.00  0.00  0.00  1.00  0.00  0.00  0.00  0.15  0.00
  WS02006232WS02006231    1.00   0.00  0.00  0.00  1.00  0.00  0.00  0.00  0.00  0.00
  WS02006231WS02006230    1.00   0.00  0.00  0.00  0.45  0.00  0.55  0.00  0.00  0.00
  WS02006230WS02006229    1.00   0.00  0.00  0.00  0.99  0.00  0.00  0.01  0.00  0.00
  WS02006228WS02006109    1.00   0.00  0.00  0.00  1.00  0.00  0.00  0.00  0.01  0.00
  WS02006116WS02004401    1.00   0.01  0.00  0.00  0.99  0.00  0.00  0.00  0.00  0.00
  WS02006115WS02006116    1.00   0.01  0.00  0.00  0.99  0.00  0.00  0.00  0.00  0.00
  WS02006113WS02006111    1.00   0.01  0.00  0.00  0.00  0.99  0.00  0.00  0.22  0.00
  WS02006112WS02006115    1.00   0.01  0.00  0.00  0.99  0.00  0.00  0.00  0.00  0.00
  WS02006111WS02006112    1.00   0.01  0.00  0.00  0.99  0.00  0.00  0.00  0.98  0.00
  WS02006110WS02006113    1.00   0.00  0.00  0.00  0.99  0.00  0.00  0.00  0.00  0.00
  WS02006109WS02006110    1.00   0.00  0.00  0.00  0.99  0.00  0.00  0.00  0.00  0.00
  WS02004411WS02004412    1.00   0.02  0.00  0.00  0.98  0.00  0.00  0.00  0.00  0.00
  WS02004401WS02004402    1.00   0.01  0.00  0.00  0.99  0.00  0.00  0.00  0.00  0.00
  WS02004413WS02003067    1.00   0.02  0.01  0.00  0.00  0.00  0.97  0.00  0.00  0.00
  WS02004412WS02004413    1.00   0.02  0.00  0.00  0.98  0.00  0.00  0.00  0.01  0.00
  WS02004410WS02004411    1.00   0.02  0.00  0.00  0.98  0.00  0.00  0.00  0.00  0.00
  WS02004409WS02004410    1.00   0.02  0.00  0.00  0.98  0.00  0.00  0.00  0.02  0.00
  WS02004407WS02004409    1.00   0.02  0.00  0.00  0.98  0.00  0.00  0.00  0.95  0.00
  WS02004406WS02004407    1.00   0.00  0.02  0.00  0.98  0.00  0.00  0.00  0.00  0.00
  WS02004405WS02004406    1.00   0.00  0.00  0.00  1.00  0.00  0.00  0.00  0.00  0.00
  WS02004404WS02004405    1.00   0.00  0.00  0.00  1.00  0.00  0.00  0.00  0.00  0.00
  WS02004403WS02004404    1.00   0.00  0.01  0.00  0.99  0.00  0.00  0.00  0.00  0.00
  WS02004402WS02004403    1.00   0.01  0.00  0.00  0.99  0.00  0.00  0.00  0.00  0.00
  WS02004139WS02001211    1.00   0.00  0.00  0.00  1.00  0.00  0.00  0.00  0.00  0.00
  WS02004138WS02004139    1.00   0.00  0.04  0.00  0.96  0.00  0.00  0.00  1.00  0.00
  WS02003067WS02003066    1.00   0.03  0.00  0.00  0.96  0.00  0.00  0.00  0.00  0.00
  WS02001213WS02003059    1.00   0.00  0.00  0.00  1.00  0.00  0.00  0.00  0.00  0.00
  WS02001212WS02001213    1.00   0.00  0.00  0.00  0.79  0.00  0.21  0.00  0.00  0.00
  WS02001211WS02001212    1.00   0.00  0.00  0.00  1.00  0.00  0.00  0.00  0.00  0.00
  WS02003072WS02003073    1.00   0.00  0.00  0.00  0.00  0.00  0.00  1.00  0.00  0.00
  WS02003069WS02003072    1.00   0.00  0.00  0.00  1.00  0.00  0.00  0.00  0.22  0.00
  WS02003060WS02003069    1.00   0.00  0.00  0.00  0.98  0.02  0.00  0.00  0.17  0.00
  WS02003059WS02003060    1.00   0.00  0.00  0.00  1.00  0.00  0.00  0.00  0.01  0.00
  HS02004901HS02004770    1.00   0.05  0.00  0.00  0.95  0.00  0.00  0.00  0.02  0.00
  HS02004876HS02004881    1.00   0.01  0.00  0.00  0.99  0.00  0.00  0.00  0.00  0.00
  HS02004870HS02004876    1.00   0.00  0.00  0.00  0.99  0.00  0.00  0.00  0.95  0.00
  HS02004842HS02004848    1.00   0.00  0.05  0.00  0.95  0.00  0.00  0.00  0.67  0.00
  HS02004837HS02004842    1.00   0.00  0.00  0.00  1.00  0.00  0.00  0.00  0.11  0.00
  HS02004830HS02004837    1.00   0.00  0.00  0.00  1.00  0.00  0.00  0.00  0.99  0.00
  HS02004824HS02004830    1.00   0.00  0.00  0.00  1.00  0.00  0.00  0.00  0.00  0.00
  HS02004817HS02004824    1.00   0.00  0.00  0.00  1.00  0.00  0.00  0.00  1.00  0.00
  HS02004770HS02004777    1.00   0.00  0.05  0.00  0.95  0.00  0.00  0.00  0.06  0.00
  HS02004799HS02004480    1.00   0.00  0.02  0.00  0.93  0.00  0.05  0.00  0.00  0.00
  HS02004792HS02004799    1.00   0.00  0.00  0.00  0.99  0.01  0.00  0.00  0.98  0.00
  HS02004788HS02004792    1.00   0.00  0.00  0.00  1.00  0.00  0.00  0.00  0.98  0.00
  HS02004785HS02004788    1.00   0.00  0.00  0.00  1.00  0.00  0.00  0.00  0.00  0.00
  HS02004777HS02004785    1.00   0.00  0.00  0.00  1.00  0.00  0.00  0.00  0.18  0.00
  HS02004480HS02004478    1.00   0.05  0.00  0.00  0.80  0.00  0.00  0.15  0.00  0.00
  HS02004479HS02004480    1.00   0.02  0.00  0.00  0.98  0.00  0.00  0.00  0.15  0.00
  HS02004862HS02004870    1.00   0.00  0.00  0.00  1.00  0.00  0.00  0.00  0.06  0.00
  HS02004848HS02004852    1.00   0.05  0.00  0.00  0.95  0.00  0.00  0.00  0.72  0.00
  HS02004856HS02004862    1.00   0.00  0.08  0.00  0.92  0.00  0.00  0.00  0.76  0.00
  HS02004852HS02004856    1.00   0.05  0.01  0.00  0.94  0.00  0.00  0.00  0.83  0.00
  HS02004802HS02004478    1.00   0.05  0.01  0.00  0.94  0.00  0.00  0.00  0.01  0.00
  HS02004478WS02006287    1.00   0.06  0.00  0.00  0.89  0.05  0.00  0.00  0.76  0.00
  HS02004817HS02004807    1.00   0.00  0.05  0.00  0.95  0.00  0.00  0.00  0.00  0.00
  HS02004807HS02004802    1.00   0.05  0.00  0.00  0.95  0.00  0.00  0.00  0.01  0.00
  YS02001759YS02001757    1.00   0.00  0.00  0.00  1.00  0.00  0.00  0.00  0.18  0.00
  YS02001762YS02001759    1.00   0.00  0.00  0.00  1.00  0.00  0.00  0.00  0.04  0.00
  YS02001765YS02001762    1.00   0.00  0.00  0.00  1.00  0.00  0.00  0.00  0.20  0.00
  YS02001770YS02001767    1.00   0.00  0.00  0.00  1.00  0.00  0.00  0.00  0.00  0.00
  YS02001774YS02001770    1.00   0.00  0.06  0.00  0.94  0.00  0.00  0.00  0.06  0.00
  YS02001779YS02001774    1.00   0.00  0.00  0.00  1.00  0.00  0.00  0.00  0.25  0.00
  YS02001649YS02001757    1.00   0.00  0.00  0.00  1.00  0.00  0.00  0.00  0.19  0.00
  YS02001767YS02001765    1.00   0.00  0.00  0.00  1.00  0.00  0.00  0.00  0.01  0.00
  YS02006561YS02001783    1.00   0.08  0.00  0.00  0.01  0.90  0.00  0.00  0.74  0.00
  YS02001783YS02001784    1.00   0.00  0.08  0.00  0.92  0.00  0.00  0.00  0.00  0.00
  YS02001784YS02001785    1.00   0.00  0.00  0.00  1.00  0.00  0.00  0.00  0.24  0.00
  YS02001788YS02001790    1.00   0.00  0.00  0.00  0.12  0.88  0.00  0.00  0.76  0.00
  YS02001790YS02001791    1.00   0.00  0.00  0.00  0.04  0.96  0.00  0.00  0.52  0.00
  YS02001791YS02001793    1.00   0.00  0.00  0.00  0.09  0.91  0.00  0.00  0.03  0.00
  YS02001910YS02001907    1.00   0.00  0.00  0.00  0.99  0.00  0.00  0.01  0.13  0.00
  YS02001786YS02001788    1.00   0.00  0.00  0.00  0.11  0.89  0.00  0.00  0.00  0.00
  YS02001915YS02001910    1.00   0.00  0.00  0.00  0.99  0.01  0.00  0.00  0.22  0.00
  YS02001918YS02001915    1.00   0.00  0.00  0.00  0.99  0.01  0.00  0.00  0.80  0.00
  YS02001923YS02001920    1.00   0.00  0.00  0.00  1.00  0.00  0.00  0.00  1.00  0.00
  YS02001926YS02001923    1.00   0.00  0.03  0.00  0.00  0.00  0.97  0.00  0.00  0.00
  YS02001929YS02001926    1.00   0.00  0.05  0.00  0.95  0.00  0.00  0.00  0.86  0.00
  YS02001920YS02001918    1.00   0.00  0.00  0.00  1.00  0.00  0.00  0.00  0.00  0.00
  YS02001629YS02163301    1.00   0.07  0.01  0.00  0.93  0.00  0.00  0.00  0.00  0.00
  YS02001619YS02001622    1.00   0.05  0.00  0.00  0.95  0.00  0.00  0.00  0.00  0.00
  YS02001622YS02001625    1.00   0.05  0.00  0.00  0.95  0.00  0.00  0.00  0.11  0.00
  YS02001625YS02001629    1.00   0.05  0.04  0.00  0.89  0.00  0.02  0.00  0.00  0.00
  YS02163301YS02001633    1.00   0.00  0.07  0.00  0.93  0.00  0.00  0.00  0.00  0.00
  YS02163601YS02164001    1.00   0.00  0.03  0.00  0.97  0.00  0.00  0.00  0.00  0.00
  YS02164001YS02001641    1.00   0.00  0.03  0.00  0.97  0.00  0.00  0.00  0.07  0.00
  YS02001641YS02001644    1.00   0.00  0.00  0.00  1.00  0.00  0.00  0.00  0.00  0.00
  YS02001647YS02001649    1.00   0.00  0.08  0.00  0.92  0.00  0.00  0.00  0.01  0.00
  YS02006553YS02006556    1.00   0.01  0.00  0.00  0.99  0.00  0.00  0.00  0.03  0.00
  YS02006556YS02006558    1.00   0.00  0.00  0.00  1.00  0.00  0.00  0.00  0.00  0.00
  YSB6556YSB1171          1.00   0.02  0.03  0.00  0.96  0.00  0.00  0.00  0.00  0.00
  YS02001907YS02006553    1.00   0.00  0.01  0.00  0.99  0.00  0.00  0.00  0.00  0.00
  YS02006558YS02006561    1.00   0.08  0.00  0.00  0.00  0.92  0.00  0.00  0.74  0.00
  YS02001633YS02163601    1.00   0.00  0.00  0.00  1.00  0.00  0.00  0.00  0.19  0.00
  YS02001644YS02001647    1.00   0.00  0.08  0.00  0.92  0.00  0.00  0.00  0.00  0.00
  YS02001745YS02001748    1.00   0.00  0.00  0.00  0.87  0.01  0.00  0.12  0.11  0.00
  YS02001748YS02001751    1.00   0.00  0.00  0.00  0.96  0.04  0.00  0.00  0.21  0.00
  YS02001751YS02001754    1.00   0.00  0.00  0.00  0.91  0.00  0.00  0.09  0.02  0.00
  YS02001754YS02001757    1.00   0.00  0.00  0.00  1.00  0.00  0.00  0.00  0.25  0.00
  YS02001882YS02001884    1.00   0.07  0.00  0.00  0.93  0.00  0.00  0.00  0.00  0.00
  YS02001884YS02001887    1.00   0.03  0.02  0.00  0.96  0.00  0.00  0.00  0.00  0.00
  YS02001890YS02001895    1.00   0.00  0.07  0.00  0.93  0.00  0.00  0.00  0.00  0.00
  YS02001895YS02001898    1.00   0.07  0.00  0.00  0.91  0.00  0.01  0.00  0.00  0.00
  YS02001898YS02001901    1.00   0.07  0.00  0.00  0.92  0.00  0.00  0.00  0.02  0.00
  YS02001901YS02001904    1.00   0.07  0.00  0.00  0.93  0.00  0.00  0.00  0.00  0.00
  YS02001904YS02001907    1.00   0.00  0.07  0.00  0.93  0.00  0.00  0.00  0.00  0.00
  YS02001887YS02001890    1.00   0.00  0.00  0.00  0.98  0.00  0.01  0.00  0.00  0.00
  YS02001652YS02001649    1.00   0.00  0.00  0.00  1.00  0.00  0.00  0.00  0.24  0.00
  YS02001655YS02001652    1.00   0.00  0.00  0.00  0.91  0.00  0.00  0.09  0.02  0.00
  YS02001658YS02001655    1.00   0.00  0.06  0.00  0.90  0.04  0.00  0.00  0.09  0.00
  YS02001661YS02001658    1.00   0.06  0.00  0.00  0.87  0.07  0.00  0.00  0.12  0.00
  YS02001664YS02001661    1.00   0.05  0.00  0.00  0.85  0.10  0.00  0.00  0.65  0.00
  YSB1154YSB6556          1.00   0.04  0.00  0.00  0.96  0.00  0.00  0.00  0.02  0.00
  YSB1174YSB1171          1.00   0.02  0.01  0.00  0.96  0.00  0.00  0.00  0.00  0.00
  YSB1171HS02004479       1.00   0.02  0.00  0.00  0.98  0.00  0.00  0.00  0.13  0.00
  HS02004881HS02006253    1.00   0.02  0.00  0.00  0.64  0.00  0.00  0.34  0.35  0.00
  YS02001793JiankangQianchi    1.00   0.00  0.00  0.00  0.58  0.42  0.00  0.00  0.60  0.00
  YS02001757CaochengTiaoxuchi    1.00   0.00  0.10  0.00  0.90  0.00  0.00  0.00  0.00  0.00
  WSF200WS02003060        1.00   0.00  0.01  0.00  0.71  0.27  0.00  0.00  0.56  0.00
  1                       1.00   0.00  0.00  0.00  0.00  1.00  0.00  0.00  0.50  0.00
  
  
  *************************
  Conduit Surcharge Summary
  *************************
  
  ----------------------------------------------------------------------------
                                                           Hours        Hours 
                         --------- Hours Full --------   Above Full   Capacity
  Conduit                Both Ends  Upstream  Dnstream   Normal Flow   Limited
  ----------------------------------------------------------------------------
  WS02006229WS02006228        1.14      1.23      1.14      2.48         1.14
  WS02006256WS02006235        4.56      4.56      6.19      2.85         0.01
  WS02006253WS02006251        0.79      0.79      0.85      0.01         0.01
  WS02006252WS02006251        0.86      0.86      1.39      1.24         0.01
  WS02006251WS02006249        0.80      0.81      0.83      0.70         0.52
  WS02006249WS02006248        0.76      0.76      0.83      2.56         0.01
  WS02006248WS02006247        0.81      0.81      0.90      0.01         0.01
  WS02006247WS02006245        0.85      0.92      0.85      2.73         0.85
  WS02006245WS02006243        0.87      0.88      0.90      0.32         0.23
  WS02006243WS02006242        0.94      0.94      1.18      0.01         0.01
  WS02006242WS02006240        0.98      0.98      1.29      1.38         0.01
  WS02006240WS02006239        0.99      1.02      1.03      0.80         0.47
  WS02006239WS02006238        1.18      1.24      1.23      0.85         0.58
  WS02006238WS02006235        1.17      1.17      1.36      0.01         0.01
  WS02006235WS02006234        0.90      0.90      1.12      4.46         0.01
  WS02006234WS02006232        0.97      0.97      1.36      0.50         0.50
  WS02006232WS02006231        0.59      0.59      1.36      0.56         0.01
  WS02006231WS02006230        0.44      0.44      0.60      4.68         0.01
  WS02006230WS02006229        1.96      2.34      1.96      5.25         1.96
  WS02006228WS02006109        1.18      1.61      1.18      3.91         1.18
  WS02006112WS02006115        0.01      0.01      0.55      0.01         0.01
  WS02006111WS02006112        0.01      0.01      2.72      0.01         0.01
  WS02006110WS02006113        0.01      0.01      1.33      0.01         0.01
  WS02006109WS02006110        0.48      0.48      1.62      0.49         0.01
  WS02004405WS02004406        0.01      0.01      0.01      0.47         0.01
  WS02004404WS02004405        0.01      0.01      0.01      5.23         0.01
  WS02003072WS02003073        0.01      0.01      0.01      4.28         0.01
  YS02001759YS02001757        5.37      5.37      5.48      0.01         0.01
  YS02001762YS02001759        5.32      5.32      5.37      0.01         0.01
  YS02001765YS02001762        5.24      5.24      5.32      0.01         0.01
  YS02001770YS02001767        5.12      5.12      5.14      0.01         0.25
  YS02001774YS02001770        4.96      4.96      5.29      0.01         0.01
  YS02001779YS02001774        4.52      4.52      5.29      0.01         0.01
  YS02001649YS02001757        5.33      5.33      5.48      0.01         0.01
  YS02001767YS02001765        5.14      5.14      5.24      0.01         0.01
  YS02001788YS02001790        0.01      0.01      0.16      0.01         0.01
  YS02001790YS02001791        0.16      0.16      0.24      0.01         0.01
  YS02001791YS02001793        0.24      0.24      0.48      0.01         0.01
  YS02001629YS02163301        4.90      4.90      5.04      0.01         0.01
  YS02001619YS02001622        2.35      2.35      2.56      0.01         0.01
  YS02001622YS02001625        2.56      2.56      4.76      0.01         0.01
  YS02001625YS02001629        2.34      2.34      4.76      0.01         0.01
  YS02163301YS02001633        5.04      5.04      5.26      0.01         0.01
  YS02163601YS02164001        5.24      5.24      5.33      0.01         0.01
  YS02164001YS02001641        5.24      5.24      5.27      0.01         0.01
  YS02001641YS02001644        5.27      5.27      5.28      0.01         0.36
  YS02001647YS02001649        4.73      4.73      5.33      0.01         0.01
  YS02001633YS02163601        5.21      5.21      5.33      0.01         0.01
  YS02001644YS02001647        4.73      4.73      5.28      0.01         0.01
  YS02001748YS02001751        0.90      0.90      3.27      0.01         0.01
  YS02001751YS02001754        3.27      3.27      4.60      0.01         0.01
  YS02001754YS02001757        4.72      4.72      5.48      0.01         0.01
  YS02001652YS02001649        4.76      4.76      5.33      0.01         0.01
  YS02001655YS02001652        3.79      3.79      4.68      0.01         0.01
  YS02001658YS02001655        0.09      0.09      3.79      0.01         0.01
  YS02001661YS02001658        0.01      0.01      0.09      0.01         0.01
  HS02004881HS02006253        0.01      0.01      0.45      0.01         0.01
  YS02001793JiankangQianchi        0.38      0.38      2.87      0.01         0.01
  YS02001757CaochengTiaoxuchi        1.67      1.67      5.48      0.01         0.01
  
  
  ***************
  Pumping Summary
  ***************
  
  ---------------------------------------------------------------------------------------------------------
                                                  Min       Avg       Max     Total     Power    % Time Off
                        Percent   Number of      Flow      Flow      Flow    Volume     Usage    Pump Curve
  Pump                 Utilized   Start-Ups       LPS       LPS       LPS  10^6 ltr     Kw-hr    Low   High
  ---------------------------------------------------------------------------------------------------------
  CC-Pump-1               38.30           1      0.00    180.81    200.00     1.920      3.66    0.0    0.0
  CC-Pump-2               23.40           4      0.00    102.92    200.00     0.840      1.86    0.0    0.0
  JK-Pump-1               44.68           5      0.00    121.01    300.00     1.847     35.78    0.0    0.0
  JK-Pump-2               34.04           5      0.00    204.43    683.00     2.409     43.20    0.0   96.6
  XR-Pump-1               85.11           5      0.00     84.07     95.00     2.052     41.08    0.0    0.0
  XR-Pump-2               85.11           5      0.00     82.06     95.00     1.995     39.89    0.0    0.0
  XR-Pump-3               78.73           6      0.00     82.66     95.00     1.824     36.25    0.0    0.0
  XR-Pump-4               78.73           6      0.00     82.66     95.00     1.824     36.25    0.0    0.0
  
  
  ***************************
  Link Pollutant Load Summary
  ***************************
  
  ------------------------------------------------------------------------------------------
                                 COD            SS            TN            TP         NH4-N
  Link                            kg            kg            kg            kg            kg
  ------------------------------------------------------------------------------------------
  WS02003066WSF200           339.699       572.726        12.323         1.220         6.885
  WS02006287WS02006284       113.927       196.312         6.390         0.733         3.812
  WS02006284WS02006280       114.352       196.997         6.430         0.738         3.836
  WS02006280WS02006229       114.336       196.968         6.429         0.738         3.836
  WS02006229WS02006228       338.520       570.349        11.986         1.173         6.664
  WS02006256WS02006235        56.419        93.461         1.772         0.163         0.967
  WS02006253WS02006251        18.313        32.697         0.550         0.049         0.294
  WS02006252WS02006251       160.739       265.848         3.551         0.250         1.732
  WS02006251WS02006249       174.708       291.417         4.000         0.292         1.977
  WS02006249WS02006248       168.602       281.240         3.868         0.282         1.912
  WS02006248WS02006247       168.688       281.409         3.867         0.282         1.911
  WS02006247WS02006245       168.740       281.500         3.867         0.282         1.911
  WS02006245WS02006243       168.727       281.532         3.858         0.281         1.905
  WS02006243WS02006242       169.956       283.681         3.886         0.283         1.919
  WS02006242WS02006240       171.599       286.551         3.925         0.286         1.939
  WS02006240WS02006239       173.407       289.659         3.971         0.290         1.963
  WS02006239WS02006238       175.808       293.617         4.051         0.298         2.008
  WS02006238WS02006235       177.037       295.555         4.092         0.302         2.031
  WS02006235WS02006234       225.207       375.034         5.624         0.444         2.869
  WS02006234WS02006232       225.292       375.172         5.631         0.444         2.873
  WS02006232WS02006231       225.117       374.871         5.622         0.443         2.868
  WS02006231WS02006230       225.198       374.990         5.627         0.444         2.870
  WS02006230WS02006229       225.278       375.197         5.632         0.445         2.874
  WS02006228WS02006109       337.799       569.232        11.915         1.164         6.620
  WS02006116WS02004401       344.618       580.716        12.460         1.232         6.956
  WS02006115WS02006116       345.299       581.796        12.499         1.236         6.979
  WS02006113WS02006111       344.564       580.067        12.585         1.249         7.039
  WS02006112WS02006115       346.032       583.004        12.542         1.241         7.005
  WS02006111WS02006112       344.072       579.281        12.549         1.244         7.017
  WS02006110WS02006113       344.852       580.542        12.604         1.251         7.051
  WS02006109WS02006110       345.726       581.966        12.669         1.259         7.091
  WS02004411WS02004412       341.256       575.306        12.387         1.227         6.921
  WS02004401WS02004402       343.802       579.382        12.418         1.227         6.932
  WS02004413WS02003067       339.882       573.002        12.326         1.221         6.886
  WS02004412WS02004413       340.670       574.350        12.366         1.225         6.910
  WS02004410WS02004411       341.577       575.819        12.398         1.228         6.927
  WS02004409WS02004410       341.901       576.350        12.411         1.229         6.934
  WS02004407WS02004409       341.974       576.446        12.411         1.229         6.934
  WS02004406WS02004407       341.755       576.051        12.399         1.228         6.927
  WS02004405WS02004406       342.670       577.552        12.443         1.233         6.953
  WS02004404WS02004405       343.111       578.233        12.441         1.232         6.950
  WS02004403WS02004404       342.427       577.153        12.353         1.220         6.894
  WS02004402WS02004403       343.127       578.300        12.386         1.224         6.913
  WS02004139WS02001211      1279.957      2051.818       119.942        14.933        74.784
  WS02004138WS02004139      1285.783      2061.166       120.476        14.999        75.117
  WS02003067WS02003066       339.734       572.786        12.325         1.221         6.886
  WS02001213WS02003059      1308.661      2097.691       122.735        15.283        76.532
  WS02001212WS02001213      1318.385      2113.271       123.658        15.398        77.109
  WS02001211WS02001212      1321.665      2118.526       123.968        15.437        77.302
  WS02003072WS02003073      1743.791      2823.017       144.312        17.662        89.205
  WS02003069WS02003072      1748.996      2831.425       144.785        17.720        89.500
  WS02003060WS02003069      1752.628      2837.256       145.114        17.761        89.704
  WS02003059WS02003060      1304.748      2091.428       122.328        15.231        76.277
  HS02004901HS02004770         2.863         5.219         0.055         0.004         0.026
  HS02004876HS02004881        11.209        20.554         0.327         0.028         0.172
  HS02004870HS02004876         8.659        15.784         0.286         0.026         0.154
  HS02004842HS02004848         1.533         2.694         0.034         0.002         0.015
  HS02004837HS02004842         6.162        10.068         0.501         0.061         0.309
  HS02004830HS02004837        49.297        80.440         4.246         0.524         2.636
  HS02004824HS02004830        50.047        81.641         4.318         0.533         2.681
  HS02004817HS02004824        56.096        92.657         4.471         0.544         2.759
  HS02004770HS02004777        11.006        20.205         0.238         0.016         0.108
  HS02004799HS02004480        46.748        81.708         2.028         0.217         1.160
  HS02004792HS02004799        43.543        75.432         2.016         0.220         1.163
  HS02004788HS02004792        28.413        48.980         1.578         0.179         0.932
  HS02004785HS02004788        12.502        22.611         0.390         0.035         0.204
  HS02004777HS02004785        11.983        21.773         0.343         0.029         0.175
  HS02004480HS02004478        56.053        99.292         2.140         0.222         1.205
  HS02004479HS02004480        13.685        24.567         0.529         0.057         0.305
  HS02004862HS02004870         6.494        11.573         0.242         0.024         0.134
  HS02004848HS02004852         1.849         3.288         0.041         0.003         0.018
  HS02004856HS02004862         3.603         6.666         0.075         0.005         0.035
  HS02004852HS02004856         1.846         3.281         0.041         0.003         0.018
  HS02004802HS02004478        58.175        97.510         4.277         0.514         2.624
  HS02004478WS02006287       114.105       196.605         6.406         0.735         3.821
  HS02004817HS02004807        54.721        90.458         4.341         0.528         2.678
  HS02004807HS02004802        58.873        98.624         4.345         0.523         2.666
  YS02001759YS02001757       104.985       174.878         2.451         0.177         1.233
  YS02001762YS02001759        56.117        94.273         1.472         0.113         0.760
  YS02001765YS02001762        55.626        93.340         1.487         0.115         0.771
  YS02001770YS02001767        53.177        89.316         1.192         0.077         0.584
  YS02001774YS02001770         3.949         6.678         0.095         0.007         0.048
  YS02001779YS02001774         2.745         4.561         0.128         0.014         0.074
  YS02001649YS02001757       155.078       250.140         3.404         0.245         1.634
  YS02001767YS02001765        55.646        93.301         1.503         0.117         0.781
  YS02006561YS02001783       225.285       372.864         6.502         0.571         3.480
  YS02001783YS02001784       225.212       372.758         6.498         0.571         3.477
  YS02001784YS02001785       232.586       384.573         7.211         0.660         3.924
  YS02001788YS02001790       233.263       385.674         7.285         0.669         3.970
  YS02001790YS02001791       234.296       387.337         7.385         0.682         4.033
  YS02001791YS02001793       234.248       387.269         7.381         0.681         4.030
  YS02001910YS02001907        80.245       130.677         3.351         0.333         1.907
  YS02001786YS02001788       232.828       384.968         7.240         0.664         3.942
  YS02001915YS02001910        80.142       130.460         3.308         0.327         1.878
  YS02001918YS02001915        43.524        68.595         2.469         0.281         1.477
  YS02001923YS02001920        23.504        36.560         0.529         0.038         0.264
  YS02001926YS02001923        23.132        35.959         0.491         0.033         0.240
  YS02001929YS02001926        22.849        35.497         0.459         0.029         0.220
  YS02001920YS02001918        43.446        68.473         2.448         0.278         1.463
  YS02001629YS02163301        26.595        43.092         0.605         0.038         0.279
  YS02001619YS02001622        29.414        47.381         0.672         0.041         0.309
  YS02001622YS02001625        28.512        46.045         0.649         0.040         0.299
  YS02001625YS02001629        27.449        44.471         0.624         0.039         0.287
  YS02163301YS02001633        26.695        43.287         0.606         0.038         0.281
  YS02163601YS02164001        74.863       120.300         1.689         0.122         0.822
  YS02164001YS02001641        74.571       119.839         1.671         0.120         0.811
  YS02001641YS02001644        75.108       120.740         1.671         0.119         0.809
  YS02001647YS02001649       119.623       191.703         2.537         0.179         1.219
  YS02006553YS02006556       164.528       271.450         5.087         0.468         2.776
  YS02006556YS02006558       164.508       271.408         5.054         0.463         2.754
  YSB6556YSB1171               6.947        12.599         0.205         0.020         0.113
  YS02001907YS02006553       164.459       271.353         5.084         0.467         2.774
  YS02006558YS02006561       225.290       372.865         6.501         0.571         3.479
  YS02001633YS02163601        75.454       121.165         1.671         0.118         0.807
  YS02001644YS02001647       120.456       192.933         2.556         0.181         1.228
  YS02001745YS02001748        41.161        67.972         0.906         0.052         0.435
  YS02001748YS02001751        41.145        68.022         0.942         0.058         0.458
  YS02001751YS02001754        40.802        67.513         0.980         0.064         0.486
  YS02001754YS02001757        41.765        69.066         1.149         0.087         0.595
  YS02001882YS02001884         0.560         0.886         0.017         0.002         0.009
  YS02001884YS02001887         2.157         3.534         0.057         0.005         0.030
  YS02001890YS02001895        85.213       142.096         1.756         0.136         0.878
  YS02001895YS02001898        85.081       141.907         1.750         0.135         0.875
  YS02001898YS02001901        84.972       141.754         1.747         0.135         0.873
  YS02001901YS02001904        85.043       141.901         1.768         0.138         0.887
  YS02001904YS02001907        85.867       143.264         1.866         0.151         0.949
  YS02001887YS02001890        86.058       143.403         1.819         0.144         0.918
  YS02001652YS02001649        37.316        61.306         0.896         0.066         0.426
  YS02001655YS02001652        38.156        62.603         0.920         0.068         0.437
  YS02001658YS02001655        37.726        61.827         0.828         0.056         0.377
  YS02001661YS02001658        38.350        62.707         0.842         0.056         0.382
  YS02001664YS02001661        39.727        64.749         0.876         0.058         0.398
  YSB1154YSB6556               6.438        11.790         0.142         0.012         0.074
  YSB1174YSB1171               4.847         8.935         0.142         0.014         0.078
  YSB1171HS02004479           13.581        24.410         0.518         0.056         0.299
  HS02004881HS02006253        12.587        23.199         0.348         0.029         0.182
  YS02001793JiankangQianchi       235.061       388.599         7.425         0.686         4.056
  YS02001757CaochengTiaoxuchi       295.753       485.125         6.647         0.470         3.251
  WSF200WS02003060           339.676       572.730        12.325         1.221         6.886
  1                         1745.926      2826.589       144.525        17.689        89.339
  CC-Pump-1                  111.827       184.994         2.463         0.173         1.201
  CC-Pump-2                   48.770        80.625         1.075         0.075         0.524
  JK-Pump-1                   47.246        78.372         1.460         0.134         0.794
  JK-Pump-2                  102.658       170.838         3.114         0.283         1.688
  XR-Pump-1                  344.125       551.665        32.232         4.012        20.095
  XR-Pump-2                  335.049       537.127        31.376         3.906        19.562
  XR-Pump-3                  305.389       489.528        28.629         3.565        17.851
  XR-Pump-4                  305.389       489.528        28.629         3.565        17.851
  

  Analysis begun on:  Sun Jul 11 13:11:14 2021
  Analysis ended on:  Sun Jul 11 13:11:16 2021
  Total elapsed time: 00:00:02