
  EPA STORM WATER MANAGEMENT MODEL - VERSION 5.1 (Build 5.3.0.dev0)
  --------------------------------------------------------------

  WARNING 04: minimum elevation drop used for Conduit WS02004404WS02004405
  WARNING 03: negative offset ignored for Link YS02001904YS02001907
  
  *********************************************************
  NOTE: The summary statistics displayed in this report are
  based on results found at every computational time step,  
  not just on results from each reporting time step.
  *********************************************************
  
  ****************
  Analysis Options
  ****************
  Flow Units ............... LPS
  Process Models:
    Rainfall/Runoff ........ YES
    RDII ................... NO
    Snowmelt ............... NO
    Groundwater ............ NO
    Flow Routing ........... YES
    Ponding Allowed ........ NO
    Water Quality .......... YES
  Infiltration Method ...... HORTON
  Flow Routing Method ...... DYNWAVE
  Surcharge Method ......... EXTRAN
  Starting Date ............ 08/28/2015 08:00:00
  Ending Date .............. 08/28/2015 15:50:00
  Antecedent Dry Days ...... 8.0
  Report Time Step ......... 00:01:00
  Wet Time Step ............ 00:01:00
  Dry Time Step ............ 00:01:00
  Routing Time Step ........ 5.00 sec
  Variable Time Step ....... YES
  Maximum Trials ........... 8
  Number of Threads ........ 4
  Head Tolerance ........... 0.001500 m
  
  
  **************************        Volume         Depth
  Runoff Quantity Continuity     hectare-m            mm
  **************************     ---------       -------
  Total Precipitation ......         1.967         4.306
  Evaporation Loss .........         0.000         0.000
  Infiltration Loss ........         0.458         1.003
  Surface Runoff ...........         1.071         2.345
  Final Storage ............         0.438         0.960
  Continuity Error (%) .....        -0.023
  
  
  **************************           COD            SS            TN            TP         NH4-N
  Runoff Quality Continuity             kg            kg            kg            kg            kg
  **************************    ----------    ----------    ----------    ----------    ----------
  Initial Buildup ..........     41378.656     70582.865      1804.177       168.684      1032.807
  Surface Buildup ..........        13.621        15.572         3.089         0.286         1.832
  Wet Deposition ...........         0.000         0.000         0.000         0.000         0.000
  Sweeping Removal .........         0.000         0.000         0.000         0.000         0.000
  Infiltration Loss ........        17.549        29.689         0.360         0.024         0.168
  BMP Removal ..............         0.000         0.000         0.000         0.000         0.000
  Surface Runoff ...........       546.428       899.765        11.368         0.724         5.343
  Remaining Buildup ........     40828.128     69668.705      1795.533       168.222      1029.126
  Continuity Error (%) .....         0.000         0.000         0.000         0.000         0.000
  
  
  **************************        Volume        Volume
  Flow Routing Continuity        hectare-m      10^6 ltr
  **************************     ---------     ---------
  Dry Weather Inflow .......         0.616         6.165
  Wet Weather Inflow .......         1.070        10.703
  Groundwater Inflow .......         0.000         0.000
  RDII Inflow ..............         0.000         0.000
  External Inflow ..........         0.102         1.024
  External Outflow .........         1.460        14.603
  Flooding Loss ............         0.147         1.469
  Evaporation Loss .........         0.000         0.000
  Exfiltration Loss ........         0.000         0.000
  Initial Stored Volume ....         0.076         0.761
  Final Stored Volume ......         0.388         3.876
  Continuity Error (%) .....        -6.943
  
  
  **************************           COD            SS            TN            TP         NH4-N
  Quality Routing Continuity            kg            kg            kg            kg            kg
  **************************    ----------    ----------    ----------    ----------    ----------
  Dry Weather Inflow .......      1541.201      2465.922       147.955        18.494        92.472
  Wet Weather Inflow .......       546.226       899.459        11.364         0.724         5.341
  Groundwater Inflow .......         0.000         0.000         0.000         0.000         0.000
  RDII Inflow ..............         0.000         0.000         0.000         0.000         0.000
  External Inflow ..........       183.418       293.469        17.608         2.201        11.005
  External Outflow .........      1833.293      2956.783       155.065        19.035        96.009
  Flooding Loss ............        66.882       110.025         2.033         0.184         1.101
  Exfiltration Loss ........         0.000         0.000         0.000         0.000         0.000
  Mass Reacted .............         0.000         0.000         0.000         0.000         0.000
  Initial Stored Mass ......         0.000         0.000         0.000         0.000         0.000
  Final Stored Mass ........       184.442       292.828         6.458         0.606         3.539
  Continuity Error (%) .....         8.201         8.178         7.557         7.443         7.508
  
  
  *************************
  Highest Continuity Errors
  *************************
  Node JK-storage (-29.35%)
  Node HS02004842 (29.28%)
  Node YS02001774 (29.03%)
  Node YS02001884 (24.13%)
  Node YSB1171 (7.42%)
  
  
  ***************************
  Time-Step Critical Elements
  ***************************
  Link WS02006252WS02006251 (52.46%)
  Link WS02006238WS02006235 (11.29%)
  Link WS02006280WS02006229 (11.13%)
  Link YS02001793JiankangQianchi (9.75%)
  Link WS02006229WS02006228 (2.15%)
  
  
  ********************************
  Highest Flow Instability Indexes
  ********************************
  Link WS02006113WS02006111 (46)
  Link WS02006111WS02006112 (22)
  Link YS02164001YS02001641 (11)
  Link YS02001641YS02001644 (10)
  Link YS02163301YS02001633 (9)
  
  
  *************************
  Routing Time Step Summary
  *************************
  Minimum Time Step           :     0.50 sec
  Average Time Step           :     1.58 sec
  Maximum Time Step           :     5.00 sec
  Percent in Steady State     :    -0.00
  Average Iterations per Step :     2.73
  Percent Not Converging      :     5.76
  
  
  ***************************
  Subcatchment Runoff Summary
  ***************************
  
  ------------------------------------------------------------------------------------------------------------------------------
                            Total      Total      Total      Total     Imperv       Perv      Total       Total     Peak  Runoff
                           Precip      Runon       Evap      Infil     Runoff     Runoff     Runoff      Runoff   Runoff   Coeff
  Subcatchment                 mm         mm         mm         mm         mm         mm         mm    10^6 ltr      LPS
  ------------------------------------------------------------------------------------------------------------------------------
  sub0                       4.31       0.00       0.00       0.30       3.96       0.00       3.96        0.00     1.26   0.920
  sub1                       4.31       0.00       0.00       0.47       3.75       0.00       3.75        0.02     7.00   0.870
  sub2                       4.31       0.00       0.00       1.59       2.64       0.00       2.64        0.02     6.21   0.612
  sub3                       4.31       0.00       0.00       1.59       2.60       0.00       2.60        0.06    12.77   0.604
  sub4                       4.31       0.00       0.00       0.47       3.61       0.00       3.61        0.08    14.25   0.839
  sub5                       4.31       0.00       0.00       0.30       3.92       0.00       3.92        0.04    12.45   0.909
  sub7                       4.31       0.00       0.00       0.39       3.86       0.00       3.86        0.01     4.32   0.896
  sub8                       4.31       0.00       0.00       0.39       3.85       0.00       3.85        0.02     7.69   0.894
  sub9                       4.31       0.00       0.00       0.39       3.85       0.00       3.85        0.02     5.71   0.894
  sub10                      4.31       0.00       0.00       0.34       3.88       0.00       3.88        0.04    12.41   0.901
  sub11                      4.31       0.00       0.00       0.34       3.90       0.00       3.90        0.05    14.43   0.905
  sub12                      4.31       0.00       0.00       0.56       3.70       0.00       3.70        0.03    11.88   0.859
  sub14                      4.31       0.00       0.00       0.39       3.85       0.00       3.85        0.04    11.17   0.893
  sub15                      4.31       0.00       0.00       1.29       2.96       0.00       2.96        0.05    15.17   0.686
  sub16                      4.31       0.00       0.00       1.42       2.85       0.00       2.85        0.03    10.56   0.661
  sub17                      4.31       0.00       0.00       1.38       2.89       0.00       2.89        0.02     8.57   0.670
  sub22                      4.31       0.00       0.00       1.85       2.41       0.00       2.41        0.15    49.29   0.561
  sub23                      4.31       0.00       0.00       1.59       2.67       0.00       2.67        0.13    41.89   0.620
  sub60                      4.31       0.00       0.00       0.52       2.56       0.00       2.56        0.78    67.98   0.595
  sub61                      4.31       0.00       0.00       0.73       2.75       0.00       2.75        0.85    86.77   0.639
  sub62                      4.31       0.00       0.00       0.34       2.95       0.00       2.95        0.91    88.22   0.685
  sub63                      4.31       0.00       0.00       1.25       2.46       0.00       2.46        0.74    81.55   0.570
  sub64                      4.31       0.00       0.00       0.65       2.45       0.00       2.45        0.74    64.50   0.569
  sub65                      4.31       0.00       0.00       0.56       2.48       0.00       2.48        0.76    65.38   0.576
  sub66                      4.31       0.00       0.00       1.25       2.14       0.00       2.14        0.66    59.42   0.497
  sub67                      4.31       0.00       0.00       0.34       3.26       0.00       3.26        1.00   115.11   0.756
  sub68                      4.31       0.00       0.00       0.60       2.93       0.00       2.93        0.90    96.36   0.681
  sub69                      4.31       0.00       0.00       0.65       3.18       0.00       3.18        0.74    97.50   0.738
  sub70                      4.31       3.24       0.00       2.57       3.87       0.00       3.87        0.89    76.13   0.513
  sub71                      4.31       0.00       0.00       0.34       2.82       0.00       2.82        0.67    61.20   0.654
  sub72                      4.31       0.00       0.00       0.30       1.97       0.00       1.97        0.40    28.64   0.457
  1                          4.31       3.77       0.00       1.31       3.92       0.46       4.38        1.03    71.11   0.543
  2                          4.31       0.00       0.00       2.88       0.96       0.14       1.10        0.44    59.27   0.254
  
  
  ****************************
  Subcatchment Washoff Summary
  ****************************
  
  ------------------------------------------------------------------------------------------
                                 COD            SS            TN            TP         NH4-N
  Subcatchment                    kg            kg            kg            kg            kg
  ------------------------------------------------------------------------------------------
  sub0                         0.570         1.040         0.009         0.001         0.004
  sub1                         2.283         4.189         0.043         0.003         0.021
  sub2                         1.300         2.291         0.030         0.002         0.013
  sub3                         3.102         5.381         0.070         0.005         0.032
  sub4                         4.923         8.910         0.104         0.006         0.049
  sub5                         5.222         9.460         0.092         0.007         0.044
  sub7                         1.232         2.316         0.024         0.002         0.011
  sub8                         1.867         3.573         0.039         0.002         0.018
  sub9                         1.571         2.965         0.031         0.002         0.015
  sub10                        4.372         8.035         0.080         0.005         0.039
  sub11                        4.396         8.213         0.083         0.005         0.040
  sub12                        3.690         6.799         0.066         0.005         0.032
  sub14                        3.318         6.202         0.064         0.004         0.031
  sub15                        3.840         6.828         0.077         0.005         0.035
  sub16                        2.471         4.412         0.048         0.004         0.022
  sub17                        2.249         3.976         0.042         0.003         0.020
  sub22                       11.323        19.721         0.224         0.016         0.103
  sub23                        7.090        12.838         0.162         0.010         0.073
  sub60                       34.987        57.014         0.769         0.043         0.367
  sub61                       44.810        72.870         0.890         0.057         0.426
  sub62                       47.427        78.558         1.007         0.059         0.481
  sub63                       33.929        54.606         0.759         0.050         0.343
  sub64                       40.830        63.987         0.802         0.055         0.378
  sub65                       41.873        65.911         0.830         0.056         0.393
  sub66                       25.188        40.006         0.585         0.036         0.269
  sub67                       71.475       117.666         1.319         0.092         0.634
  sub68                       50.855        83.803         1.049         0.066         0.496
  sub69                       48.467        81.330         0.961         0.063         0.455
  sub70                       71.156       119.132         1.546         0.101         0.709
  sub71                       31.438        52.468         0.718         0.038         0.342
  sub72                       19.242        29.534         0.390         0.025         0.186
  1                           33.903        57.216         0.768         0.050         0.346
  2                            5.651         8.974         0.194         0.011         0.080
  ------------------------------------------------------------------------------------------
  System                     666.051      1100.227        13.875         0.888         6.507
  
  
  ******************
  Node Depth Summary
  ******************
  
  ---------------------------------------------------------------------------------
                                 Average  Maximum  Maximum  Time of Max    Reported
                                   Depth    Depth      HGL   Occurrence   Max Depth
  Node                 Type       Meters   Meters   Meters  days hr:min      Meters
  ---------------------------------------------------------------------------------
  WS02001211           JUNCTION     0.70     0.79     5.63     0  06:52        0.79
  WS02001212           JUNCTION     0.42     0.50     5.57     0  06:52        0.50
  WS02001213           JUNCTION     0.65     0.75     5.51     0  06:51        0.75
  WS02003069           JUNCTION     0.44     0.57     5.15     0  06:50        0.57
  WS02003072           JUNCTION     0.51     0.63     5.00     0  06:50        0.63
  WS02003073           JUNCTION     0.30     0.39     4.45     0  06:51        0.39
  WS02003060           JUNCTION     0.40     0.50     5.43     0  06:49        0.50
  WS02003066           JUNCTION     0.22     0.30     5.85     0  05:45        0.30
  WS02003059           JUNCTION     0.70     0.80     5.49     0  06:51        0.80
  WS02003067           JUNCTION     0.55     0.70     6.02     0  05:45        0.70
  WS02004401           JUNCTION     0.64     0.85     6.85     0  05:43        0.85
  WS02004402           JUNCTION     0.67     0.88     6.84     0  05:43        0.88
  WS02004403           JUNCTION     0.70     0.89     6.82     0  05:43        0.89
  WS02004404           JUNCTION     0.77     0.97     6.82     0  05:43        0.97
  WS02004406           JUNCTION     0.78     0.96     6.79     0  05:44        0.96
  WS02004409           JUNCTION     0.45     0.67     6.44     0  05:44        0.67
  WS02004410           JUNCTION     0.47     0.68     6.40     0  05:44        0.68
  WS02004411           JUNCTION     0.49     0.69     6.37     0  05:45        0.69
  WS02004412           JUNCTION     0.51     0.70     6.34     0  05:45        0.70
  WS02004413           JUNCTION     0.67     0.86     6.33     0  05:45        0.86
  WS02004405           JUNCTION     0.77     0.96     6.81     0  05:43        0.96
  WS02006109           JUNCTION     0.72     0.99     7.61     0  05:33        0.98
  WS02006110           JUNCTION     0.71     0.93     7.52     0  05:33        0.93
  WS02006111           JUNCTION     0.20     0.29     7.00     0  05:34        0.29
  WS02006112           JUNCTION     0.81     1.05     6.94     0  05:43        1.05
  WS02006113           JUNCTION     0.31     0.46     7.35     0  05:10        0.46
  WS02006115           JUNCTION     0.53     0.76     6.89     0  05:42        0.76
  WS02006116           JUNCTION     0.61     0.83     6.87     0  05:43        0.83
  WS02006230           JUNCTION     0.69     1.13     7.87     0  05:33        1.12
  WS02006231           JUNCTION     0.45     0.87     8.00     0  05:33        0.87
  WS02006232           JUNCTION     0.59     1.07     8.11     0  05:33        1.06
  WS02006234           JUNCTION     0.51     1.08     8.24     0  05:33        1.07
  WS02006235           JUNCTION     0.55     1.17     8.33     0  05:10        1.16
  WS02006238           JUNCTION     0.58     1.20     8.34     0  05:10        1.19
  WS02006240           JUNCTION     0.49     1.14     8.43     0  05:33        1.13
  WS02006242           JUNCTION     0.54     1.22     8.49     0  05:33        1.21
  WS02006243           JUNCTION     0.43     1.13     8.55     0  05:33        1.12
  WS02006245           JUNCTION     0.41     1.11     8.60     0  05:33        1.11
  WS02006247           JUNCTION     0.42     1.14     8.64     0  05:33        1.12
  WS02006248           JUNCTION     0.37     1.08     8.67     0  05:09        1.07
  WS02006249           JUNCTION     0.40     1.09     8.69     0  05:09        1.09
  WS02006239           JUNCTION     0.53     1.18     8.39     0  05:33        1.17
  WS02006251           JUNCTION     0.38     1.26     8.93     0  05:32        1.20
  WS02006252           JUNCTION     0.27     0.82     9.06     0  05:32        0.75
  WS02006253           JUNCTION     0.41     1.31     8.95     0  05:32        1.23
  WS02006256           JUNCTION     1.36     2.35     9.28     0  00:00        2.35
  WS02004138           JUNCTION     0.16     0.20     7.45     0  00:00        0.19
  WS02004139           JUNCTION     0.64     0.73     5.64     0  06:53        0.73
  WS02004407           JUNCTION     0.21     0.30     6.61     0  05:44        0.30
  WS02006228           JUNCTION     0.71     1.04     7.69     0  05:33        1.02
  WS02006229           JUNCTION     0.69     1.03     7.73     0  05:33        1.03
  WS02006280           JUNCTION     0.05     0.14     8.41     0  02:14        0.14
  WS02006284           JUNCTION     0.34     0.47     8.87     0  02:14        0.47
  WS02006287           JUNCTION     0.07     0.20     9.16     0  02:14        0.20
  WSF200               JUNCTION     0.20     0.31     5.54     0  05:17        0.31
  HS02004901           JUNCTION     0.10     0.22    10.05     0  02:12        0.22
  HS02004881           JUNCTION     0.00     0.02     9.05     0  02:13        0.02
  HS02004876           JUNCTION     0.03     0.10     9.13     0  02:12        0.10
  HS02004870           JUNCTION     0.01     0.04     9.33     0  02:14        0.04
  HS02004862           JUNCTION     0.01     0.05     9.43     0  02:15        0.05
  HS02004856           JUNCTION     0.07     0.10     9.53     0  02:14        0.10
  HS02004852           JUNCTION     0.00     0.03     9.54     0  02:15        0.03
  HS02004848           JUNCTION     0.00     0.03     9.63     0  02:13        0.03
  HS02004842           JUNCTION     0.33     0.36     9.63     0  02:13        0.36
  HS02004837           JUNCTION     0.02     0.05     9.63     0  02:13        0.05
  HS02004830           JUNCTION     0.03     0.06     9.53     0  02:13        0.06
  HS02004824           JUNCTION     0.02     0.04     9.44     0  02:16        0.04
  HS02004817           JUNCTION     0.41     0.52     9.37     0  02:14        0.52
  HS02004807           JUNCTION     0.10     0.19     9.36     0  02:14        0.19
  HS02004802           JUNCTION     0.14     0.23     9.36     0  02:14        0.23
  HS02004799           JUNCTION     0.09     0.25     9.46     0  02:12        0.25
  HS02004792           JUNCTION     0.02     0.09     9.62     0  02:12        0.09
  HS02004788           JUNCTION     0.01     0.07     9.97     0  02:13        0.07
  HS02004785           JUNCTION     0.03     0.13    10.03     0  02:12        0.13
  HS02004777           JUNCTION     0.12     0.24    10.04     0  02:12        0.24
  HS02004770           JUNCTION     0.09     0.22    10.05     0  02:12        0.22
  HS02004480           JUNCTION     0.05     0.19     9.43     0  02:12        0.19
  HS02004479           JUNCTION     0.09     0.23     9.43     0  02:13        0.23
  HS02004478           JUNCTION     0.04     0.12     9.35     0  02:14        0.12
  YS02001745           JUNCTION     0.32     0.53     8.05     0  04:36        0.53
  YS02001748           JUNCTION     0.68     0.97     8.05     0  04:37        0.97
  YS02001751           JUNCTION     0.85     1.17     8.05     0  04:33        1.17
  YS02001754           JUNCTION     1.10     1.45     8.05     0  04:33        1.44
  YS02001762           JUNCTION     1.29     1.67     8.07     0  04:42        1.66
  YS02001765           JUNCTION     1.24     1.63     8.08     0  04:42        1.61
  YS02001767           JUNCTION     1.21     1.61     8.09     0  04:42        1.58
  YS02001770           JUNCTION     1.20     1.62     8.11     0  04:42        1.58
  YS02001774           JUNCTION     1.27     1.69     8.12     0  04:42        1.66
  YS02001779           JUNCTION     1.03     1.43     8.12     0  04:42        1.39
  YS02001882           JUNCTION     0.25     0.43     7.15     0  02:44        0.43
  YS02001884           JUNCTION     0.34     0.53     7.15     0  02:44        0.53
  YS02001759           JUNCTION     1.32     1.70     8.06     0  04:32        1.69
  YS02001887           JUNCTION     0.42     0.61     7.15     0  02:44        0.61
  YS02001890           JUNCTION     0.45     0.64     7.15     0  02:44        0.64
  YS02001898           JUNCTION     0.22     0.40     7.13     0  02:45        0.40
  YS02001901           JUNCTION     0.34     0.52     7.13     0  02:45        0.52
  YS02001904           JUNCTION     0.32     0.50     7.13     0  02:45        0.50
  YS02001907           JUNCTION     0.64     0.84     7.13     0  02:45        0.84
  YS02001910           JUNCTION     0.43     0.62     7.13     0  02:45        0.62
  YS02001915           JUNCTION     0.24     0.41     7.13     0  02:46        0.41
  YS02001918           JUNCTION     0.07     0.09     7.16     0  03:03        0.09
  YS02001619           JUNCTION     0.81     1.18     8.11     0  04:33        1.16
  YS02001629           JUNCTION     1.15     1.53     8.08     0  04:34        1.53
  YS02001641           JUNCTION     1.26     1.64     8.07     0  04:33        1.63
  YS02001644           JUNCTION     1.26     1.64     8.07     0  04:33        1.63
  YS02001652           JUNCTION     1.11     1.46     8.06     0  04:33        1.45
  YS02001655           JUNCTION     0.88     1.20     8.05     0  04:36        1.20
  YS02001920           JUNCTION     0.16     0.20     7.21     0  03:02        0.20
  YS02001923           JUNCTION     0.06     0.08     7.34     0  03:01        0.08
  YS02001926           JUNCTION     0.13     0.17     7.61     0  03:01        0.17
  YS02001929           JUNCTION     0.06     0.08     7.78     0  03:01        0.08
  YS02001658           JUNCTION     0.62     0.91     8.05     0  04:38        0.91
  YS02001661           JUNCTION     0.42     0.65     8.05     0  04:37        0.65
  YS02001664           JUNCTION     0.07     0.13     8.05     0  04:37        0.12
  YS02001622           JUNCTION     0.83     1.20     8.10     0  04:33        1.18
  YS02001633           JUNCTION     1.24     1.63     8.08     0  04:33        1.62
  YS02001649           JUNCTION     1.30     1.67     8.06     0  04:32        1.66
  YS02001757           JUNCTION     1.42     1.80     8.06     0  04:32        1.79
  YS02001895           JUNCTION     0.22     0.39     7.14     0  02:45        0.39
  YS02001625           JUNCTION     1.11     1.47     8.07     0  04:35        1.46
  YS02163301           JUNCTION     1.18     1.56     8.08     0  04:32        1.56
  YS02163601           JUNCTION     1.30     1.68     8.08     0  04:33        1.67
  YS02164001           JUNCTION     1.24     1.61     8.07     0  04:33        1.61
  YS02001647           JUNCTION     1.09     1.45     8.06     0  04:32        1.45
  YSB1154              JUNCTION     0.23     0.38     9.43     0  02:13        0.38
  YSB6556              JUNCTION     0.12     0.27     9.43     0  02:12        0.27
  YSB1174              JUNCTION     0.18     0.33     9.43     0  02:12        0.33
  YSB1171              JUNCTION     0.38     0.53     9.43     0  02:13        0.53
  YS02006553           JUNCTION     0.65     0.84     7.13     0  02:45        0.84
  YS02006561           JUNCTION     0.12     0.21     6.87     0  02:46        0.21
  YS02006556           JUNCTION     0.62     0.81     7.13     0  02:45        0.81
  YS02006558           JUNCTION     0.66     0.86     7.12     0  02:46        0.86
  YS02001783           JUNCTION     0.21     0.38     6.52     0  02:45        0.38
  YS02001784           JUNCTION     0.24     0.44     6.51     0  03:37        0.43
  YS02001786           JUNCTION     0.21     0.45     6.48     0  03:37        0.45
  YS02001788           JUNCTION     0.15     0.48     6.46     0  03:36        0.48
  YS02001790           JUNCTION     0.18     1.09     6.74     0  03:34        1.02
  YS02001791           JUNCTION     0.13     1.09     6.56     0  03:34        1.07
  YS02001793           JUNCTION     0.11     1.63     6.46     0  03:34        1.62
  WSC                  OUTFALL      0.30     0.39     1.06     0  06:51        0.39
  JK-storage           STORAGE      1.46     5.64     6.44     0  03:36        5.64
  CC-storage           STORAGE      0.72     1.03     8.03     0  04:36        1.03
  XR-storage           STORAGE      2.00     5.44     3.44     0  06:05        5.44
  
  
  *******************
  Node Inflow Summary
  *******************
  
  -------------------------------------------------------------------------------------------------
                                  Maximum  Maximum                  Lateral       Total        Flow
                                  Lateral    Total  Time of Max      Inflow      Inflow     Balance
                                   Inflow   Inflow   Occurrence      Volume      Volume       Error
  Node                 Type           LPS      LPS  days hr:min    10^6 ltr    10^6 ltr     Percent
  -------------------------------------------------------------------------------------------------
  WS02001211           JUNCTION      7.35   389.01     0  07:22       0.207        8.21       0.480
  WS02001212           JUNCTION      0.00   390.53     0  07:22           0        8.18       0.308
  WS02001213           JUNCTION      0.00   392.03     0  07:21           0        8.16       0.304
  WS02003069           JUNCTION      0.32   902.13     0  06:50     0.00902        14.6       0.172
  WS02003072           JUNCTION      0.00   902.08     0  06:50           0        14.6       0.222
  WS02003073           JUNCTION      1.82   903.96     0  06:51      0.0514        14.6       0.247
  WS02003060           JUNCTION     16.53   901.72     0  06:49       0.466        14.7       0.163
  WS02003066           JUNCTION      0.00   540.96     0  05:45           0        6.12       0.036
  WS02003059           JUNCTION      0.00   394.60     0  07:21           0        8.14       0.456
  WS02003067           JUNCTION      0.00   540.92     0  05:45           0        6.13       0.088
  WS02004401           JUNCTION      0.00   542.74     0  05:43           0        6.25       0.191
  WS02004402           JUNCTION      0.00   542.60     0  05:43           0        6.24       0.191
  WS02004403           JUNCTION      0.00   542.50     0  05:43           0        6.23       0.184
  WS02004404           JUNCTION      0.16   542.54     0  05:43     0.00457        6.22       0.150
  WS02004406           JUNCTION      0.00   542.60     0  05:43           0         6.2       0.371
  WS02004409           JUNCTION      0.00   542.33     0  05:44           0        6.17       0.087
  WS02004410           JUNCTION      0.00   541.83     0  05:44           0        6.17       0.119
  WS02004411           JUNCTION      0.00   541.47     0  05:44           0        6.16       0.138
  WS02004412           JUNCTION      0.00   541.22     0  05:45           0        6.15       0.170
  WS02004413           JUNCTION      0.00   541.08     0  05:45           0        6.14       0.284
  WS02004405           JUNCTION      0.04   542.55     0  05:43     0.00107        6.21       0.224
  WS02006109           JUNCTION      1.23   550.46     0  05:34      0.0347        6.28       0.089
  WS02006110           JUNCTION      0.00   550.65     0  05:34           0        6.28       0.131
  WS02006111           JUNCTION      0.00   571.19     0  05:12           0        6.26       0.010
  WS02006112           JUNCTION      8.57   551.30     0  05:12      0.0248        6.29       0.318
  WS02006113           JUNCTION      0.00   551.11     0  05:33           0        6.27       0.046
  WS02006115           JUNCTION      0.00   550.86     0  05:10           0        6.27       0.138
  WS02006116           JUNCTION      0.00   543.17     0  05:42           0        6.26       0.115
  WS02006230           JUNCTION     10.28   535.42     0  05:33        0.29        5.41       0.153
  WS02006231           JUNCTION      0.00   524.76     0  05:33           0        5.11      -0.067
  WS02006232           JUNCTION      0.00   524.62     0  05:33           0        5.12       0.118
  WS02006234           JUNCTION      0.00   525.01     0  05:33           0        5.11      -0.060
  WS02006235           JUNCTION      0.00   525.17     0  05:33           0        5.21       0.089
  WS02006238           JUNCTION      0.00   380.60     0  06:21           0        2.66      -0.332
  WS02006240           JUNCTION      0.00   382.52     0  06:21           0        2.57       0.019
  WS02006242           JUNCTION      0.00   382.75     0  06:20           0        2.54       0.070
  WS02006243           JUNCTION      0.00   383.21     0  06:20           0        2.51      -0.238
  WS02006245           JUNCTION      0.00   383.66     0  06:20           0         2.5       0.319
  WS02006247           JUNCTION      0.00   386.84     0  06:13           0         2.5       0.051
  WS02006248           JUNCTION      0.00   390.96     0  06:13           0        2.49      -0.081
  WS02006249           JUNCTION      0.00   428.82     0  05:32           0        2.54       0.093
  WS02006239           JUNCTION      0.00   381.17     0  06:21           0        2.61      -0.235
  WS02006251           JUNCTION      0.08   413.13     0  05:32     0.00217         2.6      -0.037
  WS02006252           JUNCTION      0.00   400.00     0  05:30           0         2.4       0.001
  WS02006253           JUNCTION      1.26   121.55     0  05:31     0.00321       0.197      -0.108
  WS02006256           JUNCTION      0.00   983.00     0  03:50           0        4.04      -0.014
  WS02004138           JUNCTION      0.00   380.00     0  00:00           0        8.04       0.073
  WS02004139           JUNCTION      0.32   395.85     0  00:00     0.00905        8.04       0.558
  WS02004407           JUNCTION      0.00   542.45     0  05:44           0        6.18       0.036
  WS02006228           JUNCTION      0.00   549.15     0  05:34           0        6.25       0.086
  WS02006229           JUNCTION      0.00   550.87     0  05:33           0        6.26       0.155
  WS02006280           JUNCTION      0.00   198.16     0  02:14           0       0.864       0.008
  WS02006284           JUNCTION      0.10   198.14     0  02:14      0.0027       0.866       0.132
  WS02006287           JUNCTION      0.00   198.05     0  02:14           0       0.864       0.083
  WSF200               JUNCTION      0.00   540.99     0  05:46           0        6.12       0.026
  HS02004901           JUNCTION     10.56    10.56     0  02:07      0.0298      0.0299       6.233
  HS02004881           JUNCTION      4.32    37.53     0  02:13       0.013       0.136       0.059
  HS02004876           JUNCTION      7.00    33.49     0  02:13      0.0249       0.124       0.424
  HS02004870           JUNCTION      7.69    26.67     0  02:13      0.0246      0.0988       0.108
  HS02004862           JUNCTION      6.41    19.52     0  02:14      0.0302      0.0744       0.223
  HS02004856           JUNCTION      5.71    13.19     0  02:13      0.0185      0.0456       3.249
  HS02004852           JUNCTION      0.00     7.87     0  02:13           0      0.0272       0.182
  HS02004848           JUNCTION     12.77    12.77     0  02:15      0.0586      0.0586       0.074
  HS02004842           JUNCTION      0.00     5.29     0  02:24           0      0.0444      41.393
  HS02004837           JUNCTION     18.76    23.38     0  02:12       0.222       0.253       0.322
  HS02004830           JUNCTION      0.15    23.51     0  02:13     0.00423       0.244       0.508
  HS02004824           JUNCTION     14.30    37.67     0  02:16      0.0768       0.319       0.169
  HS02004817           JUNCTION      0.60    38.27     0  02:16      0.0169       0.336       5.225
  HS02004807           JUNCTION     14.43    51.46     0  02:15      0.0452       0.364       1.174
  HS02004802           JUNCTION      0.00    51.70     0  02:16           0        0.36       1.137
  HS02004799           JUNCTION     11.17   124.91     0  02:11      0.0366       0.446       0.525
  HS02004792           JUNCTION     49.57   113.99     0  02:11        0.16        0.41       0.102
  HS02004788           JUNCTION     16.84    66.36     0  02:12      0.0979        0.25       0.157
  HS02004785           JUNCTION      0.15    49.95     0  02:12     0.00423       0.154       0.311
  HS02004777           JUNCTION      0.03    50.27     0  02:10    0.000846       0.155       3.462
  HS02004770           JUNCTION     41.89    51.42     0  02:09       0.127       0.156       2.032
  HS02004480           JUNCTION      0.00   147.27     0  02:12           0       0.519       0.137
  HS02004479           JUNCTION      0.00    22.86     0  02:14           0      0.0859       0.856
  HS02004478           JUNCTION      0.00   198.04     0  02:14           0       0.864       0.069
  YS02001745           JUNCTION     67.99   128.77     0  03:45       0.777       0.796       0.575
  YS02001748           JUNCTION      0.04   168.82     0  03:45     0.00127       0.805       2.077
  YS02001751           JUNCTION      0.01   180.44     0  02:52     0.00031        0.77       2.821
  YS02001754           JUNCTION      0.26   105.09     0  02:49     0.00733       0.745       3.351
  YS02001762           JUNCTION      0.00   124.66     0  02:52           0       0.833       2.641
  YS02001765           JUNCTION      0.00   108.04     0  02:54           0       0.835       2.973
  YS02001767           JUNCTION      0.54   156.67     0  02:53      0.0151       0.857       4.351
  YS02001770           JUNCTION     88.38   155.72     0  02:53        0.91       0.936       3.559
  YS02001774           JUNCTION      0.00    69.57     0  02:54           0      0.0879      40.908
  YS02001779           JUNCTION      0.01    74.65     0  02:54    0.000141      0.0373      69.779
  YS02001882           JUNCTION      0.00     3.55     0  02:07           0     0.00492      49.625
  YS02001884           JUNCTION      0.00    10.41     0  02:04           0      0.0198      31.801
  YS02001759           JUNCTION     86.81   208.78     0  02:52        0.85        1.65       1.433
  YS02001887           JUNCTION    115.56   115.56     0  02:34        1.02        1.03       0.692
  YS02001890           JUNCTION      0.00   114.62     0  02:36           0           1       0.777
  YS02001898           JUNCTION      0.00   114.08     0  02:39           0       0.992       0.213
  YS02001901           JUNCTION      0.00   113.93     0  02:40           0       0.991       0.551
  YS02001904           JUNCTION      0.00   113.52     0  02:41           0        0.99       0.512
  YS02001907           JUNCTION      0.00   204.67     0  02:47           0        2.12       1.045
  YS02001910           JUNCTION      0.00    92.46     0  02:55           0        1.14       0.889
  YS02001915           JUNCTION     61.22    91.91     0  02:54       0.665        1.14       0.389
  YS02001918           JUNCTION      0.00    31.54     0  03:02           0       0.479       0.227
  YS02001619           JUNCTION     59.42    59.42     0  02:48       0.656       0.656       1.752
  YS02001629           JUNCTION      0.00   112.83     0  02:59           0       0.579       4.867
  YS02001641           JUNCTION      0.00   144.83     0  02:52           0        1.24       1.753
  YS02001644           JUNCTION     64.54   205.72     0  02:53       0.745        1.96       1.353
  YS02001652           JUNCTION      0.00   107.75     0  02:50           0         0.7       3.423
  YS02001655           JUNCTION      0.15   168.58     0  02:50     0.00434       0.724       3.309
  YS02001920           JUNCTION      2.87    31.56     0  03:01      0.0809       0.481       0.415
  YS02001923           JUNCTION      0.04    28.69     0  03:01     0.00106         0.4       0.073
  YS02001926           JUNCTION      0.05    28.68     0  03:01     0.00147       0.401       0.519
  YS02001929           JUNCTION     28.64    28.64     0  03:01         0.4         0.4       0.070
  YS02001658           JUNCTION      0.00   121.20     0  03:48           0       0.744       2.304
  YS02001661           JUNCTION      0.00    87.89     0  03:48           0        0.75       1.100
  YS02001664           JUNCTION     81.55    81.55     0  02:36       0.743       0.743       0.014
  YS02001622           JUNCTION      0.00    96.94     0  03:00           0       0.645       4.877
  YS02001633           JUNCTION     65.58   138.10     0  02:57       0.767         1.3       2.525
  YS02001649           JUNCTION      0.00   320.60     0  02:55           0        2.57       1.494
  YS02001757           JUNCTION      0.00   495.03     0  02:53           0        4.84       1.951
  YS02001895           JUNCTION      0.00   114.24     0  02:39           0       0.996       0.366
  YS02001625           JUNCTION      0.00   108.33     0  03:00           0       0.615       6.717
  YS02163301           JUNCTION      0.00    91.28     0  03:04           0        0.56       4.518
  YS02163601           JUNCTION      0.11   150.03     0  02:57      0.0031        1.27       2.454
  YS02164001           JUNCTION      0.00   149.16     0  02:56           0        1.24       1.677
  YS02001647           JUNCTION      0.00   198.40     0  02:48           0        1.92       1.500
  YSB1154              JUNCTION     12.45    12.45     0  02:11      0.0443      0.0456       3.273
  YSB6556              JUNCTION      0.00    12.37     0  02:13           0      0.0465       2.749
  YSB1174              JUNCTION     11.88    11.88     0  02:07      0.0323      0.0331       4.029
  YSB1171              JUNCTION      0.00    22.84     0  02:12           0      0.0852       8.015
  YS02006553           JUNCTION      0.00   204.76     0  02:47           0        2.11       0.678
  YS02006561           JUNCTION      0.00   300.84     0  02:45           0        2.98       0.021
  YS02006556           JUNCTION      0.00   204.83     0  02:47           0        2.11       0.489
  YS02006558           JUNCTION     97.24   300.85     0  02:44       0.926        3.01       0.149
  YS02001783           JUNCTION      0.00   300.83     0  02:46           0        2.98       0.050
  YS02001784           JUNCTION      1.06   301.90     0  02:45      0.0299        3.01       0.082
  YS02001786           JUNCTION      0.06   301.95     0  02:45     0.00159        3.01       0.080
  YS02001788           JUNCTION      0.07   302.02     0  02:46       0.002        3.01       0.047
  YS02001790           JUNCTION      0.15   305.97     0  03:42     0.00437        3.01       0.027
  YS02001791           JUNCTION      0.00   339.64     0  03:42           0        3.01       0.028
  YS02001793           JUNCTION      0.00   396.68     0  03:44           0        3.02       0.017
  WSC                  OUTFALL       0.00   904.03     0  06:51           0        14.6       0.000
  JK-storage           STORAGE       0.00   655.12     0  04:58           0        3.17     -22.688
  CC-storage           STORAGE       0.00   484.17     0  02:54           0        4.74       1.047
  XR-storage           STORAGE     321.57   321.57     0  02:46        7.11        7.71      -4.113
  
  
  **********************
  Node Surcharge Summary
  **********************
  
  Surcharging occurs when water rises above the top of the highest conduit.
  ---------------------------------------------------------------------
                                               Max. Height   Min. Depth
                                   Hours       Above Crown    Below Rim
  Node                 Type      Surcharged         Meters       Meters
  ---------------------------------------------------------------------
  WS02006109           JUNCTION        1.44          0.169        1.651
  WS02006110           JUNCTION        0.31          0.025        1.825
  WS02006112           JUNCTION        0.47          0.053        1.627
  WS02006230           JUNCTION        0.24          0.048        1.522
  WS02006231           JUNCTION        0.51          0.163        1.367
  WS02006232           JUNCTION        1.57          0.371        1.109
  WS02006234           JUNCTION        1.00          0.359        0.881
  WS02006235           JUNCTION        1.31          0.456        0.834
  WS02006238           JUNCTION        1.42          0.476        0.954
  WS02006240           JUNCTION        0.98          0.432        0.958
  WS02006242           JUNCTION        1.30          0.492        0.328
  WS02006243           JUNCTION        0.86          0.422        0.348
  WS02006245           JUNCTION        0.79          0.405        0.445
  WS02006247           JUNCTION        0.83          0.429        0.331
  WS02006248           JUNCTION        0.67          0.362        0.018
  WS02006249           JUNCTION        0.74          0.390        0.000
  WS02006239           JUNCTION        1.09          0.440        0.850
  WS02006251           JUNCTION        0.28          0.234        0.946
  WS02006252           JUNCTION        1.48          0.421        0.679
  WS02006253           JUNCTION        0.29          0.271        2.209
  WS02006256           JUNCTION        6.30          2.050        0.000
  WS02006228           JUNCTION        1.32          0.207        1.993
  YS02001751           JUNCTION        2.40          0.171        1.029
  YS02001754           JUNCTION        4.35          0.397        0.753
  YS02001762           JUNCTION        5.10          0.672        0.478
  YS02001765           JUNCTION        4.92          0.633        0.467
  YS02001767           JUNCTION        4.82          0.606        0.424
  YS02001770           JUNCTION        4.71          0.587        0.333
  YS02001774           JUNCTION        5.03          0.693        0.357
  YS02001779           JUNCTION        4.26          0.432        0.248
  YS02001759           JUNCTION        5.19          0.700        0.510
  YS02001619           JUNCTION        2.08          0.180        0.430
  YS02001629           JUNCTION        2.09          0.150        0.320
  YS02001641           JUNCTION        4.98          0.636        0.464
  YS02001644           JUNCTION        4.99          0.642        0.278
  YS02001652           JUNCTION        4.44          0.435        0.695
  YS02001655           JUNCTION        2.64          0.204        0.996
  YS02001622           JUNCTION        2.23          0.195        0.425
  YS02001633           JUNCTION        4.87          0.607        0.453
  YS02001649           JUNCTION        5.13          0.670        0.380
  YS02001757           JUNCTION        5.37          0.795        0.415
  YS02001625           JUNCTION        4.50          0.471        0.309
  YS02163301           JUNCTION        4.75          0.563        0.467
  YS02163601           JUNCTION        5.12          0.681        0.399
  YS02164001           JUNCTION        4.91          0.615        0.485
  YS02001647           JUNCTION        4.47          0.455        0.445
  YS02001790           JUNCTION        0.05          0.293        0.864
  YS02001791           JUNCTION        0.16          0.286        1.634
  YS02001793           JUNCTION        0.26          0.629        1.971
  
  
  *********************
  Node Flooding Summary
  *********************
  
  Flooding refers to all water that overflows a node, whether it ponds or not.
  --------------------------------------------------------------------------
                                                             Total   Maximum
                                 Maximum   Time of Max       Flood    Ponded
                        Hours       Rate    Occurrence      Volume     Depth
  Node                 Flooded       LPS   days hr:min    10^6 ltr    Meters
  --------------------------------------------------------------------------
  WS02006249              0.24    101.19      0  05:32       0.047     0.000
  WS02006256              1.89    732.98      0  03:52       1.421     0.000
  
  
  **********************
  Storage Volume Summary
  **********************
  
  --------------------------------------------------------------------------------------------------
                         Average     Avg  Evap Exfil       Maximum     Max    Time of Max    Maximum
                          Volume    Pcnt  Pcnt  Pcnt        Volume    Pcnt     Occurrence    Outflow
  Storage Unit           1000 m3    Full  Loss  Loss       1000 m3    Full    days hr:min        LPS
  --------------------------------------------------------------------------------------------------
  JK-storage               0.073      25     0     0         0.283      97       0  03:36     983.00
  CC-storage               2.017      13     0     0         2.884      18       0  04:36     400.00
  XR-storage               0.240      26     0     0         0.653      70       0  06:05     380.00
  
  
  ***********************
  Outfall Loading Summary
  ***********************
  
  ---------------------------------------------------------------------------------------------------------------------------------
                         Flow       Avg       Max       Total         Total         Total         Total         Total         Total
                         Freq      Flow      Flow      Volume           COD            SS            TN            TP         NH4-N
  Outfall Node           Pcnt       LPS       LPS    10^6 ltr            kg            kg            kg            kg            kg
  ---------------------------------------------------------------------------------------------------------------------------------
  WSC                   99.98    597.73    904.03      14.603      1833.207      2956.643       155.060        19.035        96.006
  ---------------------------------------------------------------------------------------------------------------------------------
  System                99.98    597.73    904.03      14.603      1833.207      2956.643       155.060        19.035        96.006
  
  
  ********************
  Link Flow Summary
  ********************
  
  -----------------------------------------------------------------------------
                                 Maximum  Time of Max   Maximum    Max/    Max/
                                  |Flow|   Occurrence   |Veloc|    Full    Full
  Link                 Type          LPS  days hr:min     m/sec    Flow   Depth
  -----------------------------------------------------------------------------
  WS02003066WSF200     CONDUIT    540.99     0  05:46      2.87    0.09    0.23
  WS02006287WS02006284 CONDUIT    198.05     0  02:14      1.60    0.09    0.21
  WS02006284WS02006280 CONDUIT    198.16     0  02:14      1.84    0.08    0.19
  WS02006280WS02006229 CONDUIT    198.16     0  02:14      2.96    0.04    0.14
  WS02006229WS02006228 CONDUIT    549.15     0  05:34      1.09    1.82    1.00
  WS02006256WS02006235 CONDUIT    288.92     0  00:00      4.23    3.06    1.00
  WS02006253WS02006251 CONDUIT    120.73     0  05:31      0.48    0.36    1.00
  WS02006252WS02006251 CONDUIT    404.17     0  05:32      3.22    1.48    1.00
  WS02006251WS02006249 CONDUIT    428.82     0  05:32      1.13    1.24    1.00
  WS02006249WS02006248 CONDUIT    390.96     0  06:13      1.19    2.14    1.00
  WS02006248WS02006247 CONDUIT    386.84     0  06:13      1.17    0.84    1.00
  WS02006247WS02006245 CONDUIT    383.66     0  06:20      1.15    3.04    1.00
  WS02006245WS02006243 CONDUIT    383.21     0  06:20      1.19    1.13    1.00
  WS02006243WS02006242 CONDUIT    382.75     0  06:20      1.07    0.82    1.00
  WS02006242WS02006240 CONDUIT    382.52     0  06:21      1.02    1.52    1.00
  WS02006240WS02006239 CONDUIT    381.17     0  06:21      1.07    1.20    1.00
  WS02006239WS02006238 CONDUIT    380.60     0  06:21      0.99    1.22    1.00
  WS02006238WS02006235 CONDUIT    380.50     0  06:21      1.45    0.85    1.00
  WS02006235WS02006234 CONDUIT    525.01     0  05:33      1.36    5.54    1.00
  WS02006234WS02006232 CONDUIT    524.62     0  05:33      1.39    1.06    1.00
  WS02006232WS02006231 CONDUIT    524.76     0  05:33      1.36    1.10    1.00
  WS02006231WS02006230 CONDUIT    525.14     0  05:33      1.36    7.97    1.00
  WS02006230WS02006229 CONDUIT    538.57     0  05:33      1.40   11.99    1.00
  WS02006228WS02006109 CONDUIT    549.23     0  05:34      1.09    2.40    1.00
  WS02006116WS02004401 CONDUIT    542.74     0  05:43      1.00    0.75    0.84
  WS02006115WS02006116 CONDUIT    543.17     0  05:42      1.02    0.70    0.76
  WS02006113WS02006111 CONDUIT    571.19     0  05:12      2.48    0.68    0.47
  WS02006112WS02006115 CONDUIT    550.86     0  05:10      0.77    0.33    0.87
  WS02006111WS02006112 CONDUIT    551.25     0  05:12      1.60    0.26    0.67
  WS02006110WS02006113 CONDUIT    551.11     0  05:33      1.30    0.50    0.79
  WS02006109WS02006110 CONDUIT    550.65     0  05:34      1.10    1.06    1.00
  WS02004411WS02004412 CONDUIT    541.22     0  05:45      0.93    0.77    0.70
  WS02004401WS02004402 CONDUIT    542.60     0  05:43      1.00    0.65    0.87
  WS02004413WS02003067 CONDUIT    540.92     0  05:45      1.11    0.23    0.59
  WS02004412WS02004413 CONDUIT    541.08     0  05:45      0.82    0.36    0.78
  WS02004410WS02004411 CONDUIT    541.47     0  05:44      0.94    0.74    0.69
  WS02004409WS02004410 CONDUIT    541.83     0  05:44      0.97    0.70    0.68
  WS02004407WS02004409 CONDUIT    542.33     0  05:44      1.47    0.19    0.48
  WS02004406WS02004407 CONDUIT    542.45     0  05:44      1.04    0.24    0.63
  WS02004405WS02004406 CONDUIT    542.60     0  05:43      1.10    1.07    0.96
  WS02004404WS02004405 CONDUIT    542.51     0  05:43      1.15    5.32    0.96
  WS02004403WS02004404 CONDUIT    542.37     0  05:43      0.98    0.39    0.93
  WS02004402WS02004403 CONDUIT    542.50     0  05:43      1.02    0.78    0.89
  WS02004139WS02001211 CONDUIT    381.66     0  07:22      0.90    0.48    0.59
  WS02004138WS02004139 CONDUIT    395.52     0  00:00      3.64    0.08    0.44
  WS02003067WS02003066 CONDUIT    540.96     0  05:45      1.21    0.17    0.42
  WS02001213WS02003059 CONDUIT    394.60     0  07:21      0.89    0.65    0.77
  WS02001212WS02001213 CONDUIT    392.03     0  07:21      1.32    0.60    0.47
  WS02001211WS02001212 CONDUIT    390.53     0  07:22      0.78    0.30    0.65
  WS02003072WS02003073 CONDUIT    902.14     0  06:51      1.70    1.95    0.48
  WS02003069WS02003072 CONDUIT    902.08     0  06:50      1.60    0.43    0.50
  WS02003060WS02003069 CONDUIT    901.81     0  06:50      1.85    0.35    0.45
  WS02003059WS02003060 CONDUIT    398.17     0  07:22      0.95    0.26    0.65
  HS02004901HS02004770 CONDUIT      9.80     0  02:10      0.04    0.04    0.31
  HS02004876HS02004881 CONDUIT     33.57     0  02:14      0.55    0.36    0.09
  HS02004870HS02004876 CONDUIT     26.65     0  02:14      0.38    0.02    0.10
  HS02004842HS02004848 CONDUIT      5.29     0  02:24      0.03    0.00    0.27
  HS02004837HS02004842 CONDUIT      5.49     0  02:25      0.42    0.00    0.29
  HS02004830HS02004837 CONDUIT     23.36     0  02:13      0.44    0.02    0.08
  HS02004824HS02004830 CONDUIT     23.51     0  02:14      0.48    0.03    0.07
  HS02004817HS02004824 CONDUIT     37.67     0  02:16      0.17    0.02    0.40
  HS02004770HS02004777 CONDUIT     50.24     0  02:10      0.22    0.09    0.33
  HS02004799HS02004480 CONDUIT    124.71     0  02:12      0.58    0.16    0.31
  HS02004792HS02004799 CONDUIT    113.93     0  02:12      0.67    0.07    0.24
  HS02004788HS02004792 CONDUIT     66.30     0  02:13      0.82    0.04    0.12
  HS02004785HS02004788 CONDUIT     49.85     0  02:13      0.50    0.38    0.14
  HS02004777HS02004785 CONDUIT     49.80     0  02:12      0.27    0.06    0.27
  HS02004480HS02004478 CONDUIT    147.23     0  02:13      0.95    0.62    0.22
  HS02004479HS02004480 CONDUIT     23.09     0  02:15      0.16    0.02    0.30
  HS02004862HS02004870 CONDUIT     19.48     0  02:15      0.46    0.02    0.06
  HS02004848HS02004852 CONDUIT      7.87     0  02:13      0.31    0.01    0.04
  HS02004856HS02004862 CONDUIT     13.15     0  02:14      0.34    0.01    0.06
  HS02004852HS02004856 CONDUIT      7.82     0  02:15      0.12    0.01    0.09
  HS02004802HS02004478 CONDUIT     52.07     0  02:17      0.30    0.05    0.25
  HS02004478WS02006287 CONDUIT    198.05     0  02:14      1.30    0.06    0.17
  HS02004817HS02004807 CONDUIT     38.76     0  02:18      0.11    0.02    0.51
  HS02004807HS02004802 CONDUIT     51.70     0  02:16      0.25    0.10    0.30
  YS02001759YS02001757 CONDUIT    209.79     0  02:53      0.27    0.15    1.00
  YS02001762YS02001759 CONDUIT    123.59     0  02:52      0.17    0.14    1.00
  YS02001765YS02001762 CONDUIT    124.66     0  02:52      0.24    0.12    1.00
  YS02001770YS02001767 CONDUIT    156.13     0  02:53      0.29    0.62    1.00
  YS02001774YS02001770 CONDUIT     69.57     0  02:54      0.13    0.04    1.00
  YS02001779YS02001774 CONDUIT     74.65     0  02:54      0.10    0.04    1.00
  YS02001649YS02001757 CONDUIT    320.86     0  02:55      0.41    0.19    1.00
  YS02001767YS02001765 CONDUIT    108.04     0  02:54      0.26    0.14    1.00
  YS02006561YS02001783 CONDUIT    300.83     0  02:46      1.77    0.16    0.37
  YS02001783YS02001784 CONDUIT    300.84     0  02:45      1.22    0.41    0.51
  YS02001784YS02001785 CONDUIT    301.89     0  02:45      1.29    0.70    0.56
  YS02001788YS02001790 CONDUIT    305.81     0  03:42      1.86    0.23    0.80
  YS02001790YS02001791 CONDUIT    339.64     0  03:42      2.15    0.37    1.00
  YS02001791YS02001793 CONDUIT    396.68     0  03:44      4.34    0.17    1.00
  YS02001910YS02001907 CONDUIT     92.73     0  02:57      0.49    0.05    0.73
  YS02001786YS02001788 CONDUIT    301.95     0  02:46      1.73    0.58    0.58
  YS02001915YS02001910 CONDUIT     92.46     0  02:55      0.45    0.05    0.52
  YS02001918YS02001915 CONDUIT     31.53     0  03:03      0.44    0.02    0.25
  YS02001923YS02001920 CONDUIT     28.69     0  03:01      0.44    0.01    0.14
  YS02001926YS02001923 CONDUIT     28.65     0  03:01      0.48    0.04    0.13
  YS02001929YS02001926 CONDUIT     28.63     0  03:01      0.51    0.01    0.12
  YS02001920YS02001918 CONDUIT     31.54     0  03:02      0.45    0.03    0.14
  YS02001629YS02163301 CONDUIT     91.28     0  03:04      0.12    0.11    1.00
  YS02001619YS02001622 CONDUIT     96.94     0  03:00      0.62    0.14    1.00
  YS02001622YS02001625 CONDUIT     90.56     0  03:00      0.24    0.05    1.00
  YS02001625YS02001629 CONDUIT    112.83     0  02:59      0.24    0.05    1.00
  YS02163301YS02001633 CONDUIT     72.67     0  02:57      0.09    0.07    1.00
  YS02163601YS02164001 CONDUIT    149.16     0  02:56      0.19    0.13    1.00
  YS02164001YS02001641 CONDUIT    144.83     0  02:52      0.19    0.20    1.00
  YS02001641YS02001644 CONDUIT    141.34     0  02:57      0.18    0.46    1.00
  YS02001647YS02001649 CONDUIT    248.67     0  02:55      0.33    0.13    1.00
  YS02006553YS02006556 CONDUIT    204.83     0  02:47      0.30    0.18    0.81
  YS02006556YS02006558 CONDUIT    204.86     0  02:49      0.29    0.16    0.84
  YSB6556YSB1171       CONDUIT     12.55     0  02:15      0.06    0.01    0.57
  YS02001907YS02006553 CONDUIT    204.76     0  02:47      0.25    0.24    0.92
  YS02006558YS02006561 CONDUIT    300.84     0  02:45      2.27    0.66    0.48
  YS02001633YS02163601 CONDUIT    149.92     0  02:57      0.19    0.16    1.00
  YS02001644YS02001647 CONDUIT    198.40     0  02:48      0.27    0.12    1.00
  YS02001745YS02001748 CONDUIT    168.78     0  03:45      1.39    0.06    0.71
  YS02001748YS02001751 CONDUIT    180.43     0  02:52      1.08    0.09    0.99
  YS02001751YS02001754 CONDUIT     94.10     0  02:55      0.93    0.05    1.00
  YS02001754YS02001757 CONDUIT    148.18     0  02:51      0.33    0.06    1.00
  YS02001882YS02001884 CONDUIT      3.55     0  02:07      0.07    0.00    0.45
  YS02001884YS02001887 CONDUIT     10.41     0  02:04      0.05    0.01    0.55
  YS02001890YS02001895 CONDUIT    114.24     0  02:39      0.28    0.05    0.52
  YS02001895YS02001898 CONDUIT    114.08     0  02:39      0.45    0.20    0.38
  YS02001898YS02001901 CONDUIT    113.93     0  02:40      0.33    0.07    0.46
  YS02001901YS02001904 CONDUIT    113.52     0  02:41      0.28    0.18    0.51
  YS02001904YS02001907 CONDUIT    113.59     0  02:43      0.20    0.04    0.67
  YS02001887YS02001890 CONDUIT    114.62     0  02:36      0.23    0.20    0.60
  YS02001652YS02001649 CONDUIT    161.14     0  02:51      0.31    0.08    1.00
  YS02001655YS02001652 CONDUIT    107.75     0  02:50      0.97    0.05    1.00
  YS02001658YS02001655 CONDUIT    168.42     0  02:50      1.24    0.07    0.96
  YS02001661YS02001658 CONDUIT    121.20     0  03:48      1.43    0.05    0.74
  YS02001664YS02001661 CONDUIT     81.55     0  02:36      1.09    0.03    0.38
  YSB1154YSB6556       CONDUIT     12.37     0  02:13      0.19    0.02    0.46
  YSB1174YSB1171       CONDUIT     11.11     0  02:07      0.05    0.02    0.58
  YSB1171HS02004479    CONDUIT     22.86     0  02:14      0.54    0.02    0.44
  HS02004881HS02006253 CONDUIT     37.53     0  02:13      1.64    0.01    0.50
  YS02001793JiankangQianchi CONDUIT    655.12     0  04:58     13.22    0.05    1.00
  YS02001757CaochengTiaoxuchi CONDUIT    484.17     0  02:54      0.94    0.21    1.00
  WSF200WS02003060     CONDUIT    540.89     0  05:46      2.13    0.12    0.33
  1                    CONDUIT    904.03     0  06:51      3.24    0.31    0.39
  CC-Pump-1            PUMP       200.00     0  04:40              1.00
  CC-Pump-2            PUMP       200.00     0  05:30              1.00
  JK-Pump-1            PUMP       300.00     0  00:00              1.00
  JK-Pump-2            PUMP       683.00     0  03:50              1.00
  XR-Pump-1            PUMP        95.00     0  00:00              1.00
  XR-Pump-2            PUMP        95.00     0  00:00              1.00
  XR-Pump-3            PUMP        95.00     0  00:00              1.00
  XR-Pump-4            PUMP        95.00     0  00:00              1.00
  
  
  ***************************
  Flow Classification Summary
  ***************************
  
  -------------------------------------------------------------------------------------
                      Adjusted    ---------- Fraction of Time in Flow Class ---------- 
                       /Actual         Up    Down  Sub   Sup   Up    Down  Norm  Inlet 
  Conduit               Length    Dry  Dry   Dry   Crit  Crit  Crit  Crit  Ltd   Ctrl  
  -------------------------------------------------------------------------------------
  WS02003066WSF200        1.00   0.01  0.03  0.00  0.00  0.96  0.00  0.00  0.81  0.00
  WS02006287WS02006284    1.00   0.04  0.03  0.00  0.77  0.16  0.00  0.00  0.78  0.00
  WS02006284WS02006280    1.00   0.05  0.00  0.00  0.00  0.00  0.00  0.95  0.00  0.00
  WS02006280WS02006229    1.00   0.05  0.00  0.00  0.00  0.00  0.00  0.95  0.00  0.00
  WS02006229WS02006228    1.00   0.00  0.00  0.00  0.99  0.00  0.00  0.01  0.00  0.00
  WS02006256WS02006235    1.00   0.00  0.00  0.00  1.00  0.00  0.00  0.00  0.00  0.00
  WS02006253WS02006251    1.00   0.02  0.02  0.00  0.95  0.00  0.01  0.00  0.00  0.00
  WS02006252WS02006251    1.00   0.32  0.00  0.00  0.03  0.00  0.65  0.00  0.00  0.00
  WS02006251WS02006249    1.00   0.00  0.00  0.00  1.00  0.00  0.00  0.00  0.62  0.00
  WS02006249WS02006248    1.00   0.00  0.01  0.00  0.76  0.00  0.23  0.00  0.00  0.00
  WS02006248WS02006247    1.00   0.01  0.00  0.00  0.99  0.00  0.00  0.00  0.38  0.00
  WS02006247WS02006245    1.00   0.01  0.00  0.00  0.97  0.00  0.00  0.02  0.00  0.00
  WS02006245WS02006243    1.00   0.00  0.00  0.00  0.89  0.00  0.00  0.10  0.01  0.00
  WS02006243WS02006242    1.00   0.00  0.00  0.00  0.99  0.00  0.00  0.00  0.42  0.00
  WS02006242WS02006240    1.00   0.00  0.00  0.00  0.99  0.00  0.01  0.00  0.00  0.00
  WS02006240WS02006239    1.00   0.00  0.00  0.00  0.89  0.00  0.00  0.11  0.02  0.00
  WS02006239WS02006238    1.00   0.00  0.00  0.00  1.00  0.00  0.00  0.00  0.20  0.00
  WS02006238WS02006235    1.00   0.00  0.00  0.00  1.00  0.00  0.00  0.00  0.00  0.00
  WS02006235WS02006234    1.00   0.00  0.00  0.00  0.92  0.00  0.08  0.00  0.00  0.00
  WS02006234WS02006232    1.00   0.00  0.00  0.00  1.00  0.00  0.00  0.00  0.15  0.00
  WS02006232WS02006231    1.00   0.00  0.00  0.00  1.00  0.00  0.00  0.00  0.00  0.00
  WS02006231WS02006230    1.00   0.00  0.00  0.00  0.61  0.00  0.39  0.00  0.00  0.00
  WS02006230WS02006229    1.00   0.00  0.00  0.00  0.99  0.00  0.00  0.01  0.00  0.00
  WS02006228WS02006109    1.00   0.00  0.00  0.00  1.00  0.00  0.00  0.00  0.01  0.00
  WS02006116WS02004401    1.00   0.01  0.00  0.00  0.99  0.00  0.00  0.00  0.00  0.00
  WS02006115WS02006116    1.00   0.01  0.00  0.00  0.98  0.00  0.00  0.00  0.00  0.00
  WS02006113WS02006111    1.00   0.01  0.00  0.00  0.00  0.99  0.00  0.00  0.24  0.00
  WS02006112WS02006115    1.00   0.01  0.00  0.00  0.99  0.00  0.00  0.00  0.00  0.00
  WS02006111WS02006112    1.00   0.01  0.00  0.00  0.99  0.00  0.00  0.00  0.98  0.00
  WS02006110WS02006113    1.00   0.01  0.00  0.00  0.99  0.00  0.00  0.00  0.00  0.00
  WS02006109WS02006110    1.00   0.00  0.00  0.00  0.99  0.00  0.00  0.00  0.00  0.00
  WS02004411WS02004412    1.00   0.02  0.00  0.00  0.98  0.00  0.00  0.00  0.00  0.00
  WS02004401WS02004402    1.00   0.01  0.00  0.00  0.99  0.00  0.00  0.00  0.00  0.00
  WS02004413WS02003067    1.00   0.02  0.01  0.00  0.00  0.00  0.97  0.00  0.00  0.00
  WS02004412WS02004413    1.00   0.02  0.00  0.00  0.98  0.00  0.00  0.00  0.01  0.00
  WS02004410WS02004411    1.00   0.02  0.00  0.00  0.98  0.00  0.00  0.00  0.00  0.00
  WS02004409WS02004410    1.00   0.02  0.00  0.00  0.98  0.00  0.00  0.00  0.02  0.00
  WS02004407WS02004409    1.00   0.02  0.00  0.00  0.98  0.00  0.00  0.00  0.95  0.00
  WS02004406WS02004407    1.00   0.00  0.02  0.00  0.98  0.00  0.00  0.00  0.00  0.00
  WS02004405WS02004406    1.00   0.00  0.00  0.00  1.00  0.00  0.00  0.00  0.00  0.00
  WS02004404WS02004405    1.00   0.00  0.00  0.00  1.00  0.00  0.00  0.00  0.00  0.00
  WS02004403WS02004404    1.00   0.00  0.01  0.00  0.99  0.00  0.00  0.00  0.00  0.00
  WS02004402WS02004403    1.00   0.01  0.00  0.00  0.99  0.00  0.00  0.00  0.00  0.00
  WS02004139WS02001211    1.00   0.00  0.00  0.00  1.00  0.00  0.00  0.00  0.00  0.00
  WS02004138WS02004139    1.00   0.00  0.00  0.00  1.00  0.00  0.00  0.00  1.00  0.00
  WS02003067WS02003066    1.00   0.03  0.00  0.00  0.96  0.00  0.00  0.00  0.00  0.00
  WS02001213WS02003059    1.00   0.00  0.00  0.00  1.00  0.00  0.00  0.00  0.00  0.00
  WS02001212WS02001213    1.00   0.00  0.00  0.00  0.83  0.00  0.17  0.00  0.00  0.00
  WS02001211WS02001212    1.00   0.00  0.00  0.00  1.00  0.00  0.00  0.00  0.00  0.00
  WS02003072WS02003073    1.00   0.00  0.00  0.00  0.00  0.00  0.00  1.00  0.00  0.00
  WS02003069WS02003072    1.00   0.00  0.00  0.00  1.00  0.00  0.00  0.00  0.16  0.00
  WS02003060WS02003069    1.00   0.00  0.00  0.00  0.98  0.02  0.00  0.00  0.12  0.00
  WS02003059WS02003060    1.00   0.00  0.00  0.00  1.00  0.00  0.00  0.00  0.01  0.00
  HS02004901HS02004770    1.00   0.05  0.00  0.00  0.95  0.00  0.00  0.00  0.02  0.00
  HS02004876HS02004881    1.00   0.01  0.00  0.00  0.99  0.00  0.00  0.00  0.00  0.00
  HS02004870HS02004876    1.00   0.00  0.00  0.00  0.99  0.00  0.00  0.00  0.95  0.00
  HS02004842HS02004848    1.00   0.00  0.05  0.00  0.95  0.00  0.00  0.00  0.67  0.00
  HS02004837HS02004842    1.00   0.00  0.00  0.00  1.00  0.00  0.00  0.00  0.11  0.00
  HS02004830HS02004837    1.00   0.00  0.00  0.00  1.00  0.00  0.00  0.00  0.99  0.00
  HS02004824HS02004830    1.00   0.00  0.00  0.00  1.00  0.00  0.00  0.00  0.00  0.00
  HS02004817HS02004824    1.00   0.00  0.00  0.00  1.00  0.00  0.00  0.00  1.00  0.00
  HS02004770HS02004777    1.00   0.00  0.05  0.00  0.95  0.00  0.00  0.00  0.06  0.00
  HS02004799HS02004480    1.00   0.00  0.02  0.00  0.93  0.00  0.05  0.00  0.00  0.00
  HS02004792HS02004799    1.00   0.00  0.00  0.00  0.99  0.01  0.00  0.00  0.98  0.00
  HS02004788HS02004792    1.00   0.00  0.00  0.00  0.99  0.01  0.00  0.00  0.98  0.00
  HS02004785HS02004788    1.00   0.00  0.00  0.00  1.00  0.00  0.00  0.00  0.00  0.00
  HS02004777HS02004785    1.00   0.00  0.00  0.00  1.00  0.00  0.00  0.00  0.18  0.00
  HS02004480HS02004478    1.00   0.06  0.00  0.00  0.78  0.00  0.00  0.16  0.00  0.00
  HS02004479HS02004480    1.00   0.02  0.00  0.00  0.98  0.00  0.00  0.00  0.15  0.00
  HS02004862HS02004870    1.00   0.00  0.00  0.00  1.00  0.00  0.00  0.00  0.06  0.00
  HS02004848HS02004852    1.00   0.05  0.00  0.00  0.95  0.00  0.00  0.00  0.72  0.00
  HS02004856HS02004862    1.00   0.00  0.09  0.00  0.91  0.00  0.00  0.00  0.76  0.00
  HS02004852HS02004856    1.00   0.05  0.01  0.00  0.94  0.00  0.00  0.00  0.83  0.00
  HS02004802HS02004478    1.00   0.05  0.01  0.00  0.94  0.00  0.00  0.00  0.01  0.00
  HS02004478WS02006287    1.00   0.07  0.00  0.00  0.89  0.04  0.00  0.00  0.78  0.00
  HS02004817HS02004807    1.00   0.00  0.05  0.00  0.95  0.00  0.00  0.00  0.00  0.00
  HS02004807HS02004802    1.00   0.05  0.00  0.00  0.94  0.00  0.00  0.00  0.01  0.00
  YS02001759YS02001757    1.00   0.00  0.00  0.00  1.00  0.00  0.00  0.00  0.18  0.00
  YS02001762YS02001759    1.00   0.00  0.00  0.00  1.00  0.00  0.00  0.00  0.04  0.00
  YS02001765YS02001762    1.00   0.00  0.00  0.00  1.00  0.00  0.00  0.00  0.21  0.00
  YS02001770YS02001767    1.00   0.00  0.00  0.00  1.00  0.00  0.00  0.00  0.00  0.00
  YS02001774YS02001770    1.00   0.00  0.06  0.00  0.94  0.00  0.00  0.00  0.06  0.00
  YS02001779YS02001774    1.00   0.00  0.00  0.00  1.00  0.00  0.00  0.00  0.25  0.00
  YS02001649YS02001757    1.00   0.00  0.00  0.00  1.00  0.00  0.00  0.00  0.19  0.00
  YS02001767YS02001765    1.00   0.00  0.00  0.00  1.00  0.00  0.00  0.00  0.01  0.00
  YS02006561YS02001783    1.00   0.09  0.00  0.00  0.00  0.91  0.00  0.00  0.75  0.00
  YS02001783YS02001784    1.00   0.00  0.09  0.00  0.91  0.00  0.00  0.00  0.01  0.00
  YS02001784YS02001785    1.00   0.00  0.00  0.00  1.00  0.00  0.00  0.00  0.24  0.00
  YS02001788YS02001790    1.00   0.00  0.00  0.00  0.11  0.89  0.00  0.00  0.79  0.00
  YS02001790YS02001791    1.00   0.00  0.00  0.00  0.03  0.97  0.00  0.00  0.51  0.00
  YS02001791YS02001793    1.00   0.00  0.00  0.00  0.06  0.94  0.00  0.00  0.03  0.00
  YS02001910YS02001907    1.00   0.00  0.00  0.00  0.98  0.00  0.00  0.01  0.13  0.00
  YS02001786YS02001788    1.00   0.00  0.00  0.00  0.11  0.89  0.00  0.00  0.00  0.00
  YS02001915YS02001910    1.00   0.00  0.00  0.00  0.99  0.01  0.00  0.00  0.22  0.00
  YS02001918YS02001915    1.00   0.00  0.00  0.00  0.99  0.01  0.00  0.00  0.83  0.00
  YS02001923YS02001920    1.00   0.00  0.00  0.00  1.00  0.00  0.00  0.00  1.00  0.00
  YS02001926YS02001923    1.00   0.00  0.03  0.00  0.00  0.00  0.97  0.00  0.00  0.00
  YS02001929YS02001926    1.00   0.00  0.05  0.00  0.95  0.00  0.00  0.00  0.86  0.00
  YS02001920YS02001918    1.00   0.00  0.00  0.00  1.00  0.00  0.00  0.00  0.00  0.00
  YS02001629YS02163301    1.00   0.07  0.01  0.00  0.92  0.00  0.00  0.00  0.00  0.00
  YS02001619YS02001622    1.00   0.05  0.00  0.00  0.95  0.00  0.00  0.00  0.00  0.00
  YS02001622YS02001625    1.00   0.05  0.00  0.00  0.95  0.00  0.00  0.00  0.11  0.00
  YS02001625YS02001629    1.00   0.05  0.04  0.00  0.88  0.00  0.02  0.00  0.00  0.00
  YS02163301YS02001633    1.00   0.00  0.07  0.00  0.93  0.00  0.00  0.00  0.00  0.00
  YS02163601YS02164001    1.00   0.00  0.03  0.00  0.97  0.00  0.00  0.00  0.00  0.00
  YS02164001YS02001641    1.00   0.00  0.03  0.00  0.97  0.00  0.00  0.00  0.07  0.00
  YS02001641YS02001644    1.00   0.00  0.00  0.00  1.00  0.00  0.00  0.00  0.00  0.00
  YS02001647YS02001649    1.00   0.00  0.09  0.00  0.91  0.00  0.00  0.00  0.01  0.00
  YS02006553YS02006556    1.00   0.01  0.00  0.00  0.99  0.00  0.00  0.00  0.03  0.00
  YS02006556YS02006558    1.00   0.00  0.00  0.00  1.00  0.00  0.00  0.00  0.00  0.00
  YSB6556YSB1171          1.00   0.02  0.03  0.00  0.95  0.00  0.00  0.00  0.00  0.00
  YS02001907YS02006553    1.00   0.00  0.01  0.00  0.99  0.00  0.00  0.00  0.00  0.00
  YS02006558YS02006561    1.00   0.09  0.00  0.00  0.00  0.91  0.00  0.00  0.74  0.00
  YS02001633YS02163601    1.00   0.00  0.00  0.00  1.00  0.00  0.00  0.00  0.19  0.00
  YS02001644YS02001647    1.00   0.00  0.09  0.00  0.91  0.00  0.00  0.00  0.00  0.00
  YS02001745YS02001748    1.00   0.00  0.00  0.00  0.85  0.01  0.00  0.14  0.12  0.00
  YS02001748YS02001751    1.00   0.00  0.00  0.00  0.96  0.04  0.00  0.00  0.22  0.00
  YS02001751YS02001754    1.00   0.00  0.00  0.00  0.90  0.00  0.00  0.10  0.02  0.00
  YS02001754YS02001757    1.00   0.00  0.00  0.00  1.00  0.00  0.00  0.00  0.25  0.00
  YS02001882YS02001884    1.00   0.07  0.01  0.00  0.92  0.00  0.00  0.00  0.00  0.00
  YS02001884YS02001887    1.00   0.03  0.02  0.00  0.96  0.00  0.00  0.00  0.00  0.00
  YS02001890YS02001895    1.00   0.00  0.08  0.00  0.92  0.00  0.00  0.00  0.00  0.00
  YS02001895YS02001898    1.00   0.08  0.00  0.00  0.90  0.00  0.01  0.00  0.00  0.00
  YS02001898YS02001901    1.00   0.08  0.00  0.00  0.92  0.00  0.00  0.00  0.02  0.00
  YS02001901YS02001904    1.00   0.08  0.00  0.00  0.92  0.00  0.00  0.00  0.00  0.00
  YS02001904YS02001907    1.00   0.00  0.07  0.00  0.92  0.00  0.00  0.00  0.00  0.00
  YS02001887YS02001890    1.00   0.00  0.00  0.00  0.98  0.00  0.02  0.00  0.00  0.00
  YS02001652YS02001649    1.00   0.00  0.00  0.00  1.00  0.00  0.00  0.00  0.24  0.00
  YS02001655YS02001652    1.00   0.00  0.00  0.00  0.90  0.00  0.00  0.10  0.02  0.00
  YS02001658YS02001655    1.00   0.00  0.07  0.00  0.89  0.05  0.00  0.00  0.11  0.00
  YS02001661YS02001658    1.00   0.07  0.00  0.00  0.85  0.09  0.00  0.00  0.15  0.00
  YS02001664YS02001661    1.00   0.05  0.00  0.00  0.83  0.12  0.00  0.00  0.72  0.00
  YSB1154YSB6556          1.00   0.05  0.00  0.00  0.95  0.00  0.00  0.00  0.02  0.00
  YSB1174YSB1171          1.00   0.02  0.01  0.00  0.96  0.00  0.00  0.00  0.00  0.00
  YSB1171HS02004479       1.00   0.02  0.00  0.00  0.97  0.00  0.00  0.00  0.13  0.00
  HS02004881HS02006253    1.00   0.02  0.00  0.00  0.58  0.00  0.00  0.40  0.29  0.00
  YS02001793JiankangQianchi    1.00   0.00  0.00  0.00  0.59  0.41  0.00  0.00  0.60  0.00
  YS02001757CaochengTiaoxuchi    1.00   0.00  0.11  0.00  0.89  0.00  0.00  0.00  0.00  0.00
  WSF200WS02003060        1.00   0.00  0.01  0.00  0.84  0.15  0.00  0.00  0.61  0.00
  1                       1.00   0.00  0.00  0.00  0.00  1.00  0.00  0.00  0.49  0.00
  
  
  *************************
  Conduit Surcharge Summary
  *************************
  
  ----------------------------------------------------------------------------
                                                           Hours        Hours 
                         --------- Hours Full --------   Above Full   Capacity
  Conduit                Both Ends  Upstream  Dnstream   Normal Flow   Limited
  ----------------------------------------------------------------------------
  WS02006229WS02006228        1.32      1.56      1.32      2.86         1.32
  WS02006256WS02006235        4.47      4.47      6.30      3.42         0.01
  WS02006253WS02006251        0.69      0.69      0.75      0.01         0.01
  WS02006252WS02006251        0.79      0.79      1.48      1.29         0.01
  WS02006251WS02006249        0.70      0.71      0.74      0.60         0.33
  WS02006249WS02006248        0.67      0.67      0.74      2.08         0.01
  WS02006248WS02006247        0.71      0.71      0.83      0.01         0.01
  WS02006247WS02006245        0.79      0.87      0.79      2.26         0.78
  WS02006245WS02006243        0.80      0.82      0.86      0.44         0.22
  WS02006243WS02006242        0.90      0.90      1.30      0.01         0.01
  WS02006242WS02006240        0.98      0.98      1.41      1.45         0.01
  WS02006240WS02006239        1.00      1.05      1.09      0.79         0.40
  WS02006239WS02006238        1.33      1.39      1.42      0.83         0.52
  WS02006238WS02006235        1.36      1.36      1.55      0.01         0.01
  WS02006235WS02006234        1.00      1.00      1.31      4.34         0.01
  WS02006234WS02006232        1.17      1.17      1.57      0.34         0.36
  WS02006232WS02006231        0.51      0.51      1.57      0.43         0.01
  WS02006231WS02006230        0.24      0.24      0.56      4.65         0.01
  WS02006230WS02006229        2.35      2.76      2.35      5.10         2.35
  WS02006228WS02006109        1.44      1.98      1.44      3.80         1.44
  WS02006112WS02006115        0.01      0.01      0.47      0.01         0.01
  WS02006111WS02006112        0.01      0.01      2.82      0.01         0.01
  WS02006110WS02006113        0.01      0.01      1.77      0.01         0.01
  WS02006109WS02006110        0.31      0.31      1.98      0.32         0.01
  WS02004405WS02004406        0.01      0.01      0.01      0.36         0.01
  WS02004404WS02004405        0.01      0.01      0.01      5.02         0.01
  WS02003072WS02003073        0.01      0.01      0.01      4.80         0.01
  YS02001759YS02001757        5.19      5.19      5.37      0.01         0.01
  YS02001762YS02001759        5.10      5.10      5.19      0.01         0.01
  YS02001765YS02001762        4.92      4.92      5.10      0.01         0.01
  YS02001770YS02001767        4.79      4.79      4.82      0.01         0.27
  YS02001774YS02001770        4.71      4.71      5.03      0.01         0.01
  YS02001779YS02001774        4.26      4.26      5.03      0.01         0.01
  YS02001649YS02001757        5.13      5.13      5.37      0.01         0.01
  YS02001767YS02001765        4.82      4.82      4.92      0.01         0.01
  YS02001788YS02001790        0.01      0.01      0.04      0.01         0.01
  YS02001790YS02001791        0.04      0.04      0.16      0.01         0.01
  YS02001791YS02001793        0.16      0.16      0.29      0.01         0.01
  YS02001629YS02163301        4.65      4.65      4.75      0.01         0.01
  YS02001619YS02001622        2.08      2.08      2.23      0.01         0.01
  YS02001622YS02001625        2.23      2.23      4.50      0.01         0.01
  YS02001625YS02001629        2.09      2.09      4.50      0.01         0.01
  YS02163301YS02001633        4.75      4.75      4.95      0.01         0.01
  YS02163601YS02164001        4.91      4.91      5.12      0.01         0.01
  YS02164001YS02001641        4.91      4.91      4.98      0.01         0.01
  YS02001641YS02001644        4.97      4.98      4.99      0.01         0.35
  YS02001647YS02001649        4.47      4.47      5.13      0.01         0.01
  YS02001633YS02163601        4.87      4.87      5.12      0.01         0.01
  YS02001644YS02001647        4.47      4.47      4.99      0.01         0.01
  YS02001748YS02001751        0.01      0.01      2.40      0.01         0.01
  YS02001751YS02001754        2.40      2.40      4.35      0.01         0.01
  YS02001754YS02001757        4.49      4.49      5.37      0.01         0.01
  YS02001652YS02001649        4.51      4.51      5.13      0.01         0.01
  YS02001655YS02001652        2.64      2.64      4.44      0.01         0.01
  YS02001658YS02001655        0.01      0.01      2.64      0.01         0.01
  HS02004881HS02006253        0.01      0.01      0.29      0.01         0.01
  YS02001793JiankangQianchi        0.26      0.26      2.66      0.01         0.01
  YS02001757CaochengTiaoxuchi        0.84      0.84      5.37      0.01         0.01
  
  
  ***************
  Pumping Summary
  ***************
  
  ---------------------------------------------------------------------------------------------------------
                                                  Min       Avg       Max     Total     Power    % Time Off
                        Percent   Number of      Flow      Flow      Flow    Volume     Usage    Pump Curve
  Pump                 Utilized   Start-Ups       LPS       LPS       LPS  10^6 ltr     Kw-hr    Low   High
  ---------------------------------------------------------------------------------------------------------
  CC-Pump-1               31.91           2      0.00    162.16    200.00     1.440      3.14    0.0    0.0
  CC-Pump-2               29.78           3      0.00    100.39    200.00     0.960      2.18    0.0    0.0
  JK-Pump-1               51.07           5      0.00    144.76    300.00     2.220     39.71    0.0    0.0
  JK-Pump-2               36.19           4      0.00    155.45    683.00     1.814     36.45    0.0   96.2
  XR-Pump-1               89.36           4      0.00     90.56     95.00     2.223     45.84    0.0    0.0
  XR-Pump-2               87.23           4      0.00     89.24     95.00     2.166     45.19    0.0    0.0
  XR-Pump-3               78.72           6      0.00     85.08     95.00     1.824     38.04    0.0    0.0
  XR-Pump-4               78.72           6      0.00     85.08     95.00     1.824     38.04    0.0    0.0
  
  
  ***************************
  Link Pollutant Load Summary
  ***************************
  
  ------------------------------------------------------------------------------------------
                                 COD            SS            TN            TP         NH4-N
  Link                            kg            kg            kg            kg            kg
  ------------------------------------------------------------------------------------------
  WS02003066WSF200           328.462       546.324        13.101         1.342         7.437
  WS02006287WS02006284       105.285       179.047         6.232         0.721         3.737
  WS02006284WS02006280       105.709       179.730         6.271         0.726         3.761
  WS02006280WS02006229       105.692       179.700         6.270         0.726         3.761
  WS02006229WS02006228       324.591       539.667        12.700         1.290         7.185
  WS02006256WS02006235        70.996       116.682         2.397         0.229         1.327
  WS02006253WS02006251        18.979        32.972         0.649         0.061         0.356
  WS02006252WS02006251       138.847       226.430         3.740         0.308         1.938
  WS02006251WS02006249       151.253       248.731         4.187         0.352         2.187
  WS02006249WS02006248       148.336       243.942         4.112         0.346         2.148
  WS02006248WS02006247       148.470       244.185         4.111         0.345         2.147
  WS02006247WS02006245       148.459       244.174         4.110         0.345         2.146
  WS02006245WS02006243       148.269       243.928         4.092         0.343         2.135
  WS02006243WS02006242       149.334       245.760         4.115         0.345         2.146
  WS02006242WS02006240       150.468       247.709         4.140         0.347         2.159
  WS02006240WS02006239       152.021       250.378         4.178         0.350         2.179
  WS02006239WS02006238       154.337       254.202         4.256         0.357         2.222
  WS02006238WS02006235       156.046       256.908         4.317         0.363         2.256
  WS02006235WS02006234       220.104       361.930         6.506         0.573         3.470
  WS02006234WS02006232       220.192       362.069         6.512         0.573         3.474
  WS02006232WS02006231       220.023       361.785         6.504         0.573         3.469
  WS02006231WS02006230       219.951       361.674         6.504         0.573         3.470
  WS02006230WS02006229       219.651       361.178         6.489         0.571         3.461
  WS02006228WS02006109       324.133       538.965        12.645         1.283         7.150
  WS02006116WS02004401       332.052       552.076        13.254         1.358         7.525
  WS02006115WS02006116       332.419       552.648        13.282         1.361         7.542
  WS02006113WS02006111       331.316       550.468        13.342         1.370         7.586
  WS02006112WS02006115       333.081       553.734        13.324         1.366         7.568
  WS02006111WS02006112       330.998       549.961        13.315         1.367         7.569
  WS02006110WS02006113       331.675       551.057        13.365         1.373         7.600
  WS02006109WS02006110       332.498       552.395        13.426         1.380         7.637
  WS02004411WS02004412       329.950       548.758        13.180         1.351         7.484
  WS02004401WS02004402       331.422       551.051        13.215         1.353         7.501
  WS02004413WS02003067       328.597       546.518        13.106         1.342         7.440
  WS02004412WS02004413       329.414       547.895        13.154         1.348         7.469
  WS02004410WS02004411       330.235       549.208        13.194         1.352         7.492
  WS02004409WS02004410       330.543       549.706        13.211         1.354         7.502
  WS02004407WS02004409       330.577       549.738        13.212         1.354         7.503
  WS02004406WS02004407       330.313       549.275        13.199         1.353         7.496
  WS02004405WS02004406       331.116       550.585        13.248         1.358         7.525
  WS02004404WS02004405       331.229       550.724        13.242         1.357         7.520
  WS02004403WS02004404       330.441       549.470        13.154         1.346         7.465
  WS02004402WS02004403       331.000       550.383        13.187         1.350         7.485
  WS02004139WS02001211      1324.231      2121.362       124.617        15.525        77.728
  WS02004138WS02004139      1320.426      2115.272       124.254        15.479        77.501
  WS02003067WS02003066       328.485       546.361        13.103         1.342         7.439
  WS02001213WS02003059      1374.212      2201.335       129.407        16.123        80.722
  WS02001212WS02001213      1373.048      2199.466       129.307        16.111        80.660
  WS02001211WS02001212      1374.788      2202.253       129.472        16.131        80.762
  WS02003072WS02003073      1816.880      2930.379       153.493        18.839        95.026
  WS02003069WS02003072      1819.716      2934.961       153.757        18.872        95.191
  WS02003060WS02003069      1818.123      2932.412       153.601        18.852        95.093
  WS02003059WS02003060      1375.956      2204.139       129.547        16.140        80.808
  HS02004901HS02004770         2.431         4.360         0.047         0.003         0.022
  HS02004876HS02004881         9.769        17.645         0.299         0.026         0.160
  HS02004870HS02004876         7.594        13.635         0.265         0.025         0.144
  HS02004842HS02004848         1.351         2.345         0.030         0.002         0.014
  HS02004837HS02004842         5.986         9.734         0.497         0.061         0.307
  HS02004830HS02004837        48.394        78.628         4.229         0.523         2.628
  HS02004824HS02004830        49.144        79.829         4.301         0.532         2.673
  HS02004817HS02004824        54.421        89.307         4.440         0.542         2.744
  HS02004770HS02004777         9.431        17.053         0.207         0.013         0.094
  HS02004799HS02004480        42.052        72.432         1.940         0.211         1.119
  HS02004792HS02004799        39.387        67.274         1.938         0.214         1.126
  HS02004788HS02004792        26.194        44.561         1.535         0.176         0.912
  HS02004785HS02004788        10.925        19.455         0.359         0.033         0.189
  HS02004777HS02004785        10.412        18.627         0.312         0.027         0.161
  HS02004480HS02004478        49.815        86.886         2.027         0.214         1.152
  HS02004479HS02004480        12.157        21.462         0.506         0.055         0.294
  HS02004862HS02004870         5.724        10.049         0.227         0.023         0.126
  HS02004848HS02004852         1.538         2.695         0.034         0.002         0.016
  HS02004856HS02004862         3.039         5.545         0.064         0.004         0.030
  HS02004852HS02004856         1.535         2.689         0.034         0.002         0.015
  HS02004802HS02004478        55.771        92.652         4.232         0.511         2.602
  HS02004478WS02006287       105.464       179.339         6.247         0.723         3.746
  HS02004817HS02004807        53.045        87.106         4.309         0.526         2.662
  HS02004807HS02004802        56.472        93.770         4.299         0.519         2.644
  YS02001759YS02001757        89.830       147.873         2.163         0.159         1.095
  YS02001762YS02001759        48.232        80.090         1.320         0.104         0.689
  YS02001765YS02001762        47.819        79.316         1.337         0.106         0.701
  YS02001770YS02001767        45.423        75.381         1.044         0.068         0.514
  YS02001774YS02001770         5.463         9.175         0.140         0.010         0.072
  YS02001779YS02001774         4.404         7.312         0.188         0.019         0.108
  YS02001649YS02001757       133.050       212.084         3.095         0.232         1.511
  YS02001767YS02001765        47.887        79.366         1.354         0.108         0.711
  YS02006561YS02001783       196.011       320.804         5.942         0.534         3.211
  YS02001783YS02001784       195.943       320.705         5.939         0.533         3.209
  YS02001784YS02001785       203.315       332.516         6.652         0.622         3.655
  YS02001788YS02001790       204.007       333.648         6.725         0.632         3.701
  YS02001790YS02001791       205.066       335.358         6.826         0.644         3.764
  YS02001791YS02001793       205.001       335.259         6.821         0.644         3.761
  YS02001910YS02001907        71.430       115.299         3.169         0.322         1.820
  YS02001786YS02001788       203.555       332.910         6.680         0.626         3.673
  YS02001915YS02001910        71.317       115.066         3.127         0.316         1.792
  YS02001918YS02001915        39.895        62.607         2.398         0.276         1.442
  YS02001923YS02001920        19.867        30.554         0.460         0.034         0.231
  YS02001926YS02001923        19.493        29.950         0.421         0.029         0.206
  YS02001929YS02001926        19.205        29.479         0.389         0.025         0.186
  YS02001920YS02001918        39.811        62.472         2.378         0.273         1.430
  YS02001629YS02163301        22.312        35.747         0.515         0.032         0.237
  YS02001619YS02001622        25.118        40.002         0.581         0.035         0.267
  YS02001622YS02001625        24.278        38.767         0.560         0.034         0.257
  YS02001625YS02001629        23.281        37.301         0.536         0.033         0.247
  YS02163301YS02001633        22.219        35.620         0.512         0.032         0.237
  YS02163601YS02164001        63.232       100.461         1.461         0.106         0.714
  YS02164001YS02001641        62.858        99.870         1.440         0.104         0.702
  YS02001641YS02001644        63.265       100.538         1.438         0.104         0.699
  YS02001647YS02001649       100.835       159.740         2.175         0.155         1.047
  YS02006553YS02006556       143.666       234.468         4.690         0.441         2.585
  YS02006556YS02006558       143.631       234.396         4.658         0.436         2.563
  YSB6556YSB1171               6.064        10.825         0.190         0.019         0.107
  YS02001907YS02006553       143.589       234.355         4.685         0.440         2.582
  YS02006558YS02006561       196.018       320.806         5.942         0.533         3.211
  YS02001633YS02163601        63.810       101.295         1.443         0.103         0.699
  YS02001644YS02001647       101.617       160.879         2.193         0.156         1.056
  YS02001745YS02001748        44.849        72.884         1.712         0.161         0.956
  YS02001748YS02001751        46.067        74.872         1.939         0.192         1.103
  YS02001751YS02001754        44.734        72.685         1.973         0.199         1.131
  YS02001754YS02001757        45.850        74.505         2.136         0.221         1.236
  YS02001882YS02001884         0.468         0.729         0.015         0.001         0.008
  YS02001884YS02001887         1.810         2.919         0.051         0.005         0.027
  YS02001890YS02001895        73.181       120.510         1.542         0.121         0.775
  YS02001895YS02001898        73.052       120.326         1.536         0.120         0.772
  YS02001898YS02001901        72.946       120.177         1.533         0.120         0.770
  YS02001901YS02001904        73.020       120.330         1.554         0.123         0.784
  YS02001904YS02001907        73.825       121.662         1.650         0.135         0.844
  YS02001887YS02001890        74.021       121.809         1.606         0.128         0.814
  YS02001652YS02001649        34.053        55.157         0.951         0.078         0.475
  YS02001655YS02001652        34.858        56.386         0.974         0.080         0.487
  YS02001658YS02001655        33.639        54.357         0.783         0.055         0.363
  YS02001661YS02001658        34.279        55.267         0.764         0.051         0.346
  YS02001664YS02001661        34.005        54.761         0.760         0.050         0.344
  YSB1154YSB6556               5.553        10.011         0.127         0.011         0.067
  YSB1174YSB1171               4.213         7.630         0.132         0.013         0.073
  YSB1171HS02004479           12.051        21.303         0.494         0.054         0.287
  HS02004881HS02006253        10.963        19.898         0.319         0.027         0.168
  YS02001793JiankangQianchi       206.578       337.782         6.888         0.651         3.800
  YS02001757CaochengTiaoxuchi       262.514       425.219         7.045         0.574         3.638
  WSF200WS02003060           328.455       546.341        13.102         1.342         7.438
  1                         1833.207      2956.643       155.060        19.035        96.006
  CC-Pump-1                   83.227       135.745         2.234         0.184         1.157
  CC-Pump-2                   55.411        90.351         1.489         0.122         0.771
  JK-Pump-1                   77.710       127.924         2.595         0.246         1.433
  JK-Pump-2                   57.375        94.218         1.757         0.159         0.952
  XR-Pump-1                  368.376       590.157        34.639         4.315        21.603
  XR-Pump-2                  356.615       571.302        33.545         4.178        20.921
  XR-Pump-3                  297.637       476.776        28.028         3.492        17.484
  XR-Pump-4                  297.637       476.776        28.028         3.492        17.484
  

  Analysis begun on:  Sun Jul 11 13:14:43 2021
  Analysis ended on:  Sun Jul 11 13:14:45 2021
  Total elapsed time: 00:00:02