
  EPA STORM WATER MANAGEMENT MODEL - VERSION 5.1 (Build 5.3.0.dev0)
  --------------------------------------------------------------

  WARNING 04: minimum elevation drop used for Conduit WS02004404WS02004405
  WARNING 03: negative offset ignored for Link YS02001904YS02001907
  
  *********************************************************
  NOTE: The summary statistics displayed in this report are
  based on results found at every computational time step,  
  not just on results from each reporting time step.
  *********************************************************
  
  ****************
  Analysis Options
  ****************
  Flow Units ............... LPS
  Process Models:
    Rainfall/Runoff ........ YES
    RDII ................... NO
    Snowmelt ............... NO
    Groundwater ............ NO
    Flow Routing ........... YES
    Ponding Allowed ........ NO
    Water Quality .......... YES
  Infiltration Method ...... HORTON
  Flow Routing Method ...... DYNWAVE
  Surcharge Method ......... EXTRAN
  Starting Date ............ 08/28/2015 08:00:00
  Ending Date .............. 08/28/2015 15:50:00
  Antecedent Dry Days ...... 8.0
  Report Time Step ......... 00:01:00
  Wet Time Step ............ 00:01:00
  Dry Time Step ............ 00:01:00
  Routing Time Step ........ 5.00 sec
  Variable Time Step ....... YES
  Maximum Trials ........... 8
  Number of Threads ........ 4
  Head Tolerance ........... 0.001500 m
  
  
  **************************        Volume         Depth
  Runoff Quantity Continuity     hectare-m            mm
  **************************     ---------       -------
  Total Precipitation ......         2.606         5.704
  Evaporation Loss .........         0.000         0.000
  Infiltration Loss ........         0.561         1.229
  Surface Runoff ...........         1.510         3.306
  Final Storage ............         0.535         1.170
  Continuity Error (%) .....        -0.022
  
  
  **************************           COD            SS            TN            TP         NH4-N
  Runoff Quality Continuity             kg            kg            kg            kg            kg
  **************************    ----------    ----------    ----------    ----------    ----------
  Initial Buildup ..........     41378.656     70582.865      1804.177       168.684      1032.807
  Surface Buildup ..........        14.984        19.577         2.992         0.276         1.770
  Wet Deposition ...........         0.000         0.000         0.000         0.000         0.000
  Sweeping Removal .........         0.000         0.000         0.000         0.000         0.000
  Infiltration Loss ........        27.328        48.049         0.541         0.036         0.254
  BMP Removal ..............         0.000         0.000         0.000         0.000         0.000
  Surface Runoff ...........       902.424      1539.396        18.273         1.185         8.612
  Remaining Buildup ........     40463.596     69014.503      1788.349       167.738      1025.708
  Continuity Error (%) .....         0.001         0.001         0.000         0.000         0.000
  
  
  **************************        Volume        Volume
  Flow Routing Continuity        hectare-m      10^6 ltr
  **************************     ---------     ---------
  Dry Weather Inflow .......         0.616         6.165
  Wet Weather Inflow .......         1.509        15.094
  Groundwater Inflow .......         0.000         0.000
  RDII Inflow ..............         0.000         0.000
  External Inflow ..........         0.102         1.024
  External Outflow .........         1.606        16.058
  Flooding Loss ............         0.267         2.668
  Evaporation Loss .........         0.000         0.000
  Exfiltration Loss ........         0.000         0.000
  Initial Stored Volume ....         0.076         0.761
  Final Stored Volume ......         0.540         5.402
  Continuity Error (%) .....        -4.707
  
  
  **************************           COD            SS            TN            TP         NH4-N
  Quality Routing Continuity            kg            kg            kg            kg            kg
  **************************    ----------    ----------    ----------    ----------    ----------
  Dry Weather Inflow .......      1541.201      2465.922       147.955        18.494        92.472
  Wet Weather Inflow .......       902.112      1538.906        18.266         1.185         8.609
  Groundwater Inflow .......         0.000         0.000         0.000         0.000         0.000
  RDII Inflow ..............         0.000         0.000         0.000         0.000         0.000
  External Inflow ..........       183.418       293.469        17.608         2.201        11.005
  External Outflow .........      1934.503      3160.110       151.573        18.407        93.313
  Flooding Loss ............       133.092       227.194         3.566         0.306         1.884
  Exfiltration Loss ........         0.000         0.000         0.000         0.000         0.000
  Mass Reacted .............         0.000         0.000         0.000         0.000         0.000
  Initial Stored Mass ......         0.000         0.000         0.000         0.000         0.000
  Final Stored Mass ........       426.912       692.576        23.416         2.629        13.892
  Continuity Error (%) .....         5.034         5.081         2.870         2.462         2.674
  
  
  *************************
  Highest Continuity Errors
  *************************
  Node YS02001774 (36.93%)
  Node HS02004842 (24.91%)
  Node JK-storage (-22.67%)
  Node YS02001884 (19.20%)
  Node YSB1171 (5.73%)
  
  
  ***************************
  Time-Step Critical Elements
  ***************************
  Link WS02006252WS02006251 (68.74%)
  Link WS02006280WS02006229 (9.28%)
  Link WS02006238WS02006235 (9.26%)
  Link YS02001793JiankangQianchi (4.24%)
  
  
  ********************************
  Highest Flow Instability Indexes
  ********************************
  Link WS02006113WS02006111 (46)
  Link YS02001779YS02001774 (33)
  Link YS02001774YS02001770 (29)
  Link YS02001619YS02001622 (24)
  Link WS02006111WS02006112 (23)
  
  
  *************************
  Routing Time Step Summary
  *************************
  Minimum Time Step           :     0.48 sec
  Average Time Step           :     1.16 sec
  Maximum Time Step           :     5.00 sec
  Percent in Steady State     :    -0.00
  Average Iterations per Step :     4.34
  Percent Not Converging      :    24.15
  
  
  ***************************
  Subcatchment Runoff Summary
  ***************************
  
  ------------------------------------------------------------------------------------------------------------------------------
                            Total      Total      Total      Total     Imperv       Perv      Total       Total     Peak  Runoff
                           Precip      Runon       Evap      Infil     Runoff     Runoff     Runoff      Runoff   Runoff   Coeff
  Subcatchment                 mm         mm         mm         mm         mm         mm         mm    10^6 ltr      LPS
  ------------------------------------------------------------------------------------------------------------------------------
  sub0                       5.70       0.00       0.00       0.40       5.26       0.00       5.26        0.00     1.76   0.923
  sub1                       5.70       0.00       0.00       0.63       4.99       0.00       4.99        0.03    10.00   0.875
  sub2                       5.70       0.00       0.00       2.11       3.51       0.00       3.52        0.03     8.93   0.616
  sub3                       5.70       0.00       0.00       2.11       3.48       0.00       3.48        0.08    18.51   0.610
  sub4                       5.70       0.00       0.00       0.63       4.85       0.00       4.85        0.10    20.80   0.850
  sub5                       5.70       0.00       0.00       0.40       5.21       0.00       5.22        0.06    17.78   0.914
  sub7                       5.70       0.00       0.00       0.51       5.13       0.00       5.13        0.02     6.10   0.900
  sub8                       5.70       0.00       0.00       0.51       5.12       0.00       5.12        0.03    10.90   0.898
  sub9                       5.70       0.00       0.00       0.51       5.12       0.00       5.12        0.02     8.10   0.898
  sub10                      5.70       0.00       0.00       0.46       5.16       0.00       5.17        0.06    17.68   0.906
  sub11                      5.70       0.00       0.00       0.45       5.18       0.00       5.18        0.06    20.43   0.908
  sub12                      5.70       0.00       0.00       0.74       4.92       0.00       4.92        0.04    16.67   0.862
  sub14                      5.70       0.00       0.00       0.51       5.12       0.00       5.12        0.05    15.85   0.897
  sub15                      5.70       0.00       0.00       1.71       3.93       0.00       3.93        0.07    21.58   0.690
  sub16                      5.70       0.00       0.00       1.88       3.78       0.00       3.78        0.04    14.81   0.663
  sub17                      5.70       0.00       0.00       1.82       3.84       0.00       3.84        0.03    12.06   0.673
  sub22                      5.70       0.00       0.00       2.45       3.21       0.00       3.21        0.20    69.69   0.563
  sub23                      5.70       0.00       0.00       2.11       3.55       0.00       3.55        0.17    59.12   0.623
  sub60                      5.70       0.00       0.00       0.68       3.63       0.00       3.63        1.10   103.27   0.637
  sub61                      5.70       0.00       0.00       0.97       3.83       0.00       3.83        1.18   130.65   0.672
  sub62                      5.70       0.00       0.00       0.46       4.12       0.00       4.12        1.27   133.19   0.723
  sub63                      5.70       0.00       0.00       1.65       3.39       0.00       3.40        1.03   122.35   0.595
  sub64                      5.70       0.00       0.00       0.86       3.47       0.00       3.47        1.06    98.04   0.609
  sub65                      5.70       0.00       0.00       0.74       3.52       0.00       3.52        1.08    99.43   0.617
  sub66                      5.70       0.00       0.00       1.65       3.02       0.00       3.02        0.93    90.08   0.529
  sub67                      5.70       0.00       0.00       0.46       4.48       0.00       4.48        1.38   172.31   0.786
  sub68                      5.70       0.00       0.00       0.80       4.06       0.00       4.06        1.25   144.75   0.712
  sub69                      5.70       0.00       0.00       0.86       4.33       0.00       4.33        1.01   144.98   0.760
  sub70                      5.70       4.42       0.00       3.44       5.46       0.01       5.47        1.25   117.52   0.540
  sub71                      5.70       0.00       0.00       0.46       3.96       0.00       3.96        0.94    92.68   0.695
  sub72                      5.70       0.00       0.00       0.40       2.88       0.00       2.88        0.59    44.34   0.506
  1                          5.70       5.32       0.00       1.32       5.68       0.92       6.60        1.55   113.61   0.598
  2                          5.70       0.00       0.00       2.90       1.30       0.32       1.62        0.65    89.22   0.284
  
  
  ****************************
  Subcatchment Washoff Summary
  ****************************
  
  ------------------------------------------------------------------------------------------
                                 COD            SS            TN            TP         NH4-N
  Subcatchment                    kg            kg            kg            kg            kg
  ------------------------------------------------------------------------------------------
  sub0                         0.879         1.648         0.014         0.001         0.007
  sub1                         3.523         6.669         0.066         0.004         0.031
  sub2                         2.005         3.647         0.044         0.003         0.020
  sub3                         4.828         8.653         0.106         0.007         0.048
  sub4                         7.645        14.326         0.157         0.009         0.075
  sub5                         8.122        15.189         0.142         0.011         0.068
  sub7                         1.879         3.637         0.035         0.002         0.017
  sub8                         2.824         5.570         0.057         0.003         0.027
  sub9                         2.393         4.654         0.047         0.003         0.022
  sub10                        6.749        12.796         0.123         0.009         0.059
  sub11                        6.725        12.948         0.125         0.008         0.060
  sub12                        5.654        10.723         0.101         0.007         0.048
  sub14                        5.077         9.782         0.096         0.006         0.046
  sub15                        5.936        10.888         0.116         0.008         0.054
  sub16                        3.797         6.985         0.073         0.005         0.034
  sub17                        3.476         6.334         0.064         0.005         0.030
  sub22                       17.518        31.464         0.339         0.025         0.157
  sub23                       10.777        20.097         0.239         0.015         0.108
  sub60                       57.922        97.961         1.233         0.071         0.588
  sub61                       73.614       124.286         1.428         0.093         0.684
  sub62                       77.600       133.390         1.600         0.095         0.765
  sub63                       55.254        92.167         1.190         0.080         0.543
  sub64                       68.924       112.157         1.321         0.092         0.625
  sub65                       70.660       115.483         1.366         0.093         0.648
  sub66                       41.633        68.541         0.930         0.058         0.429
  sub67                      116.966       199.978         2.126         0.150         1.023
  sub68                       82.898       141.755         1.663         0.106         0.789
  sub69                       78.034       135.854         1.511         0.102         0.717
  sub70                      117.757       204.265         2.477         0.164         1.143
  sub71                       51.318        88.875         1.133         0.061         0.540
  sub72                       33.610        53.608         0.663         0.043         0.317
  1                           62.698       109.624         1.365         0.091         0.620
  2                            9.521        15.559         0.310         0.018         0.129
  ------------------------------------------------------------------------------------------
  System                    1098.215      1879.515        22.261         1.451        10.472
  
  
  ******************
  Node Depth Summary
  ******************
  
  ---------------------------------------------------------------------------------
                                 Average  Maximum  Maximum  Time of Max    Reported
                                   Depth    Depth      HGL   Occurrence   Max Depth
  Node                 Type       Meters   Meters   Meters  days hr:min      Meters
  ---------------------------------------------------------------------------------
  WS02001211           JUNCTION     0.68     0.79     5.62     0  02:45        0.79
  WS02001212           JUNCTION     0.40     0.50     5.56     0  02:44        0.50
  WS02001213           JUNCTION     0.65     0.74     5.51     0  03:51        0.74
  WS02003069           JUNCTION     0.46     0.57     5.15     0  04:44        0.57
  WS02003072           JUNCTION     0.53     0.63     5.00     0  04:44        0.63
  WS02003073           JUNCTION     0.32     0.38     4.45     0  04:45        0.38
  WS02003060           JUNCTION     0.41     0.50     5.43     0  04:43        0.50
  WS02003066           JUNCTION     0.24     0.30     5.85     0  04:47        0.30
  WS02003059           JUNCTION     0.71     0.79     5.48     0  03:51        0.79
  WS02003067           JUNCTION     0.60     0.70     6.02     0  04:47        0.70
  WS02004401           JUNCTION     0.70     0.86     6.86     0  04:45        0.86
  WS02004402           JUNCTION     0.73     0.88     6.84     0  04:45        0.88
  WS02004403           JUNCTION     0.75     0.90     6.83     0  04:45        0.90
  WS02004404           JUNCTION     0.83     0.97     6.82     0  04:45        0.97
  WS02004406           JUNCTION     0.83     0.96     6.79     0  04:45        0.96
  WS02004409           JUNCTION     0.52     0.67     6.44     0  04:46        0.67
  WS02004410           JUNCTION     0.54     0.69     6.41     0  04:46        0.69
  WS02004411           JUNCTION     0.55     0.70     6.38     0  04:47        0.70
  WS02004412           JUNCTION     0.57     0.70     6.34     0  04:47        0.70
  WS02004413           JUNCTION     0.73     0.86     6.33     0  04:47        0.86
  WS02004405           JUNCTION     0.82     0.96     6.81     0  04:45        0.96
  WS02006109           JUNCTION     0.78     0.99     7.61     0  06:10        0.99
  WS02006110           JUNCTION     0.77     0.93     7.52     0  05:09        0.93
  WS02006111           JUNCTION     0.23     0.29     7.00     0  04:41        0.29
  WS02006112           JUNCTION     0.87     1.08     6.96     0  05:14        1.07
  WS02006113           JUNCTION     0.35     0.46     7.35     0  04:41        0.46
  WS02006115           JUNCTION     0.59     0.76     6.90     0  04:44        0.76
  WS02006116           JUNCTION     0.67     0.84     6.88     0  04:44        0.84
  WS02006230           JUNCTION     0.77     1.13     7.87     0  06:10        1.12
  WS02006231           JUNCTION     0.52     0.87     7.99     0  06:10        0.87
  WS02006232           JUNCTION     0.67     1.07     8.11     0  06:11        1.06
  WS02006234           JUNCTION     0.61     1.09     8.24     0  06:11        1.07
  WS02006235           JUNCTION     0.65     1.17     8.33     0  06:11        1.16
  WS02006238           JUNCTION     0.67     1.20     8.34     0  06:11        1.19
  WS02006240           JUNCTION     0.59     1.15     8.44     0  06:11        1.13
  WS02006242           JUNCTION     0.65     1.25     8.52     0  03:41        1.21
  WS02006243           JUNCTION     0.54     1.18     8.60     0  03:41        1.12
  WS02006245           JUNCTION     0.52     1.17     8.66     0  03:41        1.11
  WS02006247           JUNCTION     0.54     1.20     8.70     0  03:41        1.13
  WS02006248           JUNCTION     0.49     1.10     8.69     0  03:41        1.07
  WS02006249           JUNCTION     0.51     1.09     8.69     0  04:37        1.09
  WS02006239           JUNCTION     0.64     1.19     8.39     0  06:11        1.17
  WS02006251           JUNCTION     0.49     1.23     8.90     0  05:08        1.15
  WS02006252           JUNCTION     0.35     0.78     9.02     0  06:09        0.68
  WS02006253           JUNCTION     0.52     1.28     8.92     0  05:08        1.18
  WS02006256           JUNCTION     1.43     2.35     9.28     0  00:00        2.35
  WS02004138           JUNCTION     0.15     0.20     7.45     0  00:00        0.19
  WS02004139           JUNCTION     0.62     0.73     5.64     0  02:45        0.73
  WS02004407           JUNCTION     0.23     0.30     6.61     0  04:45        0.30
  WS02006228           JUNCTION     0.78     1.03     7.69     0  04:39        1.03
  WS02006229           JUNCTION     0.76     1.03     7.72     0  06:10        1.03
  WS02006280           JUNCTION     0.05     0.17     8.44     0  02:13        0.17
  WS02006284           JUNCTION     0.34     0.51     8.91     0  02:12        0.51
  WS02006287           JUNCTION     0.07     0.24     9.20     0  02:12        0.24
  WSF200               JUNCTION     0.23     0.31     5.55     0  04:49        0.31
  HS02004901           JUNCTION     0.10     0.25    10.08     0  02:10        0.25
  HS02004881           JUNCTION     0.00     0.03     9.06     0  02:12        0.03
  HS02004876           JUNCTION     0.03     0.11     9.14     0  02:08        0.11
  HS02004870           JUNCTION     0.01     0.05     9.34     0  02:12        0.05
  HS02004862           JUNCTION     0.01     0.06     9.44     0  02:13        0.06
  HS02004856           JUNCTION     0.07     0.11     9.54     0  02:13        0.11
  HS02004852           JUNCTION     0.01     0.03     9.55     0  02:13        0.03
  HS02004848           JUNCTION     0.01     0.03     9.63     0  02:12        0.03
  HS02004842           JUNCTION     0.33     0.36     9.63     0  02:12        0.36
  HS02004837           JUNCTION     0.02     0.05     9.63     0  02:12        0.05
  HS02004830           JUNCTION     0.03     0.07     9.54     0  02:12        0.07
  HS02004824           JUNCTION     0.02     0.05     9.45     0  02:15        0.05
  HS02004817           JUNCTION     0.42     0.55     9.40     0  02:13        0.55
  HS02004807           JUNCTION     0.11     0.23     9.40     0  02:13        0.23
  HS02004802           JUNCTION     0.14     0.26     9.39     0  02:13        0.26
  HS02004799           JUNCTION     0.09     0.29     9.50     0  02:11        0.29
  HS02004792           JUNCTION     0.02     0.12     9.64     0  02:10        0.12
  HS02004788           JUNCTION     0.02     0.09     9.99     0  02:11        0.09
  HS02004785           JUNCTION     0.03     0.15    10.05     0  02:11        0.15
  HS02004777           JUNCTION     0.12     0.27    10.07     0  02:10        0.27
  HS02004770           JUNCTION     0.09     0.25    10.08     0  02:10        0.25
  HS02004480           JUNCTION     0.05     0.23     9.47     0  02:11        0.23
  HS02004479           JUNCTION     0.09     0.27     9.47     0  02:11        0.27
  HS02004478           JUNCTION     0.05     0.15     9.38     0  02:12        0.15
  YS02001745           JUNCTION     0.60     0.83     8.34     0  05:01        0.82
  YS02001748           JUNCTION     0.99     1.26     8.34     0  05:08        1.26
  YS02001751           JUNCTION     1.18     1.47     8.35     0  05:02        1.46
  YS02001754           JUNCTION     1.43     1.75     8.36     0  05:05        1.74
  YS02001762           JUNCTION     1.62     1.97     8.37     0  04:44        1.95
  YS02001765           JUNCTION     1.58     1.93     8.38     0  04:44        1.90
  YS02001767           JUNCTION     1.54     1.90     8.39     0  04:44        1.87
  YS02001770           JUNCTION     1.53     1.90     8.39     0  04:44        1.86
  YS02001774           JUNCTION     1.60     1.96     8.39     0  05:14        1.94
  YS02001779           JUNCTION     1.35     1.68     8.37     0  04:06        1.68
  YS02001882           JUNCTION     0.29     0.54     7.26     0  02:41        0.54
  YS02001884           JUNCTION     0.38     0.64     7.26     0  02:41        0.64
  YS02001759           JUNCTION     1.66     2.00     8.36     0  04:06        1.98
  YS02001887           JUNCTION     0.46     0.72     7.26     0  02:42        0.72
  YS02001890           JUNCTION     0.49     0.75     7.26     0  02:42        0.75
  YS02001898           JUNCTION     0.26     0.50     7.24     0  02:43        0.50
  YS02001901           JUNCTION     0.38     0.63     7.24     0  02:42        0.63
  YS02001904           JUNCTION     0.36     0.61     7.24     0  02:43        0.61
  YS02001907           JUNCTION     0.69     0.95     7.24     0  02:43        0.95
  YS02001910           JUNCTION     0.48     0.73     7.24     0  02:42        0.73
  YS02001915           JUNCTION     0.28     0.52     7.24     0  02:42        0.52
  YS02001918           JUNCTION     0.09     0.17     7.24     0  02:42        0.17
  YS02001619           JUNCTION     1.14     1.50     8.43     0  03:51        1.47
  YS02001629           JUNCTION     1.49     1.85     8.40     0  03:41        1.84
  YS02001641           JUNCTION     1.59     1.95     8.38     0  03:51        1.92
  YS02001644           JUNCTION     1.60     1.92     8.35     0  03:51        1.92
  YS02001652           JUNCTION     1.44     1.80     8.40     0  04:07        1.78
  YS02001655           JUNCTION     1.20     1.57     8.42     0  04:07        1.55
  YS02001920           JUNCTION     0.18     0.25     7.26     0  02:43        0.25
  YS02001923           JUNCTION     0.07     0.10     7.36     0  03:01        0.10
  YS02001926           JUNCTION     0.15     0.20     7.64     0  03:01        0.20
  YS02001929           JUNCTION     0.07     0.10     7.79     0  03:01        0.10
  YS02001658           JUNCTION     0.94     1.31     8.45     0  03:44        1.27
  YS02001661           JUNCTION     0.71     1.04     8.45     0  04:06        1.03
  YS02001664           JUNCTION     0.25     0.53     8.45     0  04:07        0.53
  YS02001622           JUNCTION     1.16     1.51     8.42     0  03:51        1.49
  YS02001633           JUNCTION     1.58     1.96     8.41     0  04:12        1.94
  YS02001649           JUNCTION     1.63     1.98     8.37     0  04:07        1.97
  YS02001757           JUNCTION     1.76     2.10     8.36     0  05:05        2.08
  YS02001895           JUNCTION     0.25     0.50     7.25     0  02:42        0.50
  YS02001625           JUNCTION     1.44     1.78     8.38     0  03:41        1.78
  YS02163301           JUNCTION     1.52     1.89     8.41     0  03:51        1.87
  YS02163601           JUNCTION     1.63     2.01     8.41     0  03:51        1.98
  YS02164001           JUNCTION     1.57     1.94     8.40     0  03:51        1.91
  YS02001647           JUNCTION     1.43     1.76     8.37     0  04:07        1.74
  YSB1154              JUNCTION     0.23     0.42     9.47     0  02:11        0.42
  YSB6556              JUNCTION     0.12     0.30     9.47     0  02:11        0.30
  YSB1174              JUNCTION     0.18     0.36     9.47     0  02:11        0.36
  YSB1171              JUNCTION     0.38     0.57     9.47     0  02:11        0.57
  YS02006553           JUNCTION     0.69     0.95     7.23     0  02:43        0.95
  YS02006561           JUNCTION     0.14     0.27     6.93     0  02:34        0.27
  YS02006556           JUNCTION     0.66     0.92     7.23     0  02:50        0.92
  YS02006558           JUNCTION     0.71     0.96     7.23     0  02:43        0.96
  YS02001783           JUNCTION     0.25     0.70     6.84     0  03:09        0.68
  YS02001784           JUNCTION     0.28     0.76     6.83     0  03:09        0.74
  YS02001786           JUNCTION     0.24     0.75     6.78     0  03:09        0.74
  YS02001788           JUNCTION     0.18     0.79     6.77     0  03:09        0.73
  YS02001790           JUNCTION     0.22     1.17     6.82     0  03:07        1.03
  YS02001791           JUNCTION     0.17     1.20     6.67     0  03:07        1.16
  YS02001793           JUNCTION     0.19     1.79     6.62     0  03:09        1.78
  WSC                  OUTFALL      0.32     0.38     1.05     0  04:46        0.38
  JK-storage           STORAGE      1.52     5.80     6.60     0  03:07        5.80
  CC-storage           STORAGE      1.03     1.32     8.32     0  05:03        1.32
  XR-storage           STORAGE      2.13     6.38     4.38     0  07:16        6.38
  
  
  *******************
  Node Inflow Summary
  *******************
  
  -------------------------------------------------------------------------------------------------
                                  Maximum  Maximum                  Lateral       Total        Flow
                                  Lateral    Total  Time of Max      Inflow      Inflow     Balance
                                   Inflow   Inflow   Occurrence      Volume      Volume       Error
  Node                 Type           LPS      LPS  days hr:min    10^6 ltr    10^6 ltr     Percent
  -------------------------------------------------------------------------------------------------
  WS02001211           JUNCTION      7.35   388.87     0  03:09       0.207        8.15       0.492
  WS02001212           JUNCTION      0.00   390.28     0  03:09           0        8.12       0.337
  WS02001213           JUNCTION      0.00   391.67     0  03:09           0        8.09       0.314
  WS02003069           JUNCTION      0.32   895.43     0  04:43     0.00902        16.1       0.211
  WS02003072           JUNCTION      0.00   895.49     0  04:44           0        16.1       0.253
  WS02003073           JUNCTION      1.82   897.76     0  04:45      0.0514        16.1       0.285
  WS02003060           JUNCTION     16.53   894.16     0  04:44       0.466        16.2       0.201
  WS02003066           JUNCTION      0.00   545.53     0  04:47           0        7.68       0.060
  WS02003059           JUNCTION      0.00   394.05     0  03:08           0        8.08       0.491
  WS02003067           JUNCTION      0.00   545.47     0  04:47           0        7.69       0.126
  WS02004401           JUNCTION      0.00   547.48     0  04:44           0        7.94       0.296
  WS02004402           JUNCTION      0.00   547.32     0  04:44           0        7.91       0.276
  WS02004403           JUNCTION      0.00   547.16     0  04:45           0        7.89       0.249
  WS02004404           JUNCTION      0.16   547.27     0  04:45     0.00457        7.88       0.185
  WS02004406           JUNCTION      0.00   547.29     0  04:45           0        7.84       0.452
  WS02004409           JUNCTION      0.00   547.12     0  04:45           0         7.8       0.228
  WS02004410           JUNCTION      0.00   546.54     0  04:46           0        7.78       0.254
  WS02004411           JUNCTION      0.00   546.06     0  04:46           0        7.76       0.257
  WS02004412           JUNCTION      0.00   545.79     0  04:47           0        7.74       0.274
  WS02004413           JUNCTION      0.00   545.60     0  04:47           0        7.72       0.404
  WS02004405           JUNCTION      0.04   547.26     0  04:45     0.00107        7.86       0.275
  WS02006109           JUNCTION      1.23   549.47     0  04:39      0.0347        8.04       0.251
  WS02006110           JUNCTION      0.00   549.28     0  04:39           0        8.02       0.262
  WS02006111           JUNCTION      0.00   571.53     0  04:41           0        7.99       0.067
  WS02006112           JUNCTION     12.06   555.15     0  04:41      0.0329        8.01       0.409
  WS02006113           JUNCTION      0.00   549.67     0  04:39           0           8       0.145
  WS02006115           JUNCTION      0.00   557.38     0  04:41           0        7.98       0.294
  WS02006116           JUNCTION      0.00   547.97     0  04:44           0        7.96       0.251
  WS02006230           JUNCTION     10.28   536.79     0  06:11        0.29        6.97       0.212
  WS02006231           JUNCTION      0.00   525.91     0  06:11           0         6.7       0.225
  WS02006232           JUNCTION      0.00   525.56     0  06:11           0        6.71       0.274
  WS02006234           JUNCTION      0.00   524.77     0  06:11           0        6.72       0.160
  WS02006235           JUNCTION      0.00   524.28     0  06:11           0        6.81       0.176
  WS02006238           JUNCTION      0.00   394.09     0  04:20           0        4.35       0.154
  WS02006240           JUNCTION      0.00   394.28     0  04:20           0        4.31       0.392
  WS02006242           JUNCTION      0.00   394.20     0  04:20           0         4.3       0.440
  WS02006243           JUNCTION      0.00   394.51     0  04:20           0        4.28       0.206
  WS02006245           JUNCTION      0.00   394.86     0  04:20           0        4.29       0.334
  WS02006247           JUNCTION      0.00   394.48     0  04:20           0        4.29       0.272
  WS02006248           JUNCTION      0.00   397.05     0  04:20           0         4.3       0.230
  WS02006249           JUNCTION      0.00   419.39     0  06:09           0        4.36       0.355
  WS02006239           JUNCTION      0.00   394.12     0  04:20           0        4.33       0.152
  WS02006251           JUNCTION      0.08   405.90     0  06:09     0.00217        4.45       0.379
  WS02006252           JUNCTION      0.00   400.00     0  04:10           0         4.2       0.014
  WS02006253           JUNCTION      1.76   114.38     0  03:41     0.00426       0.261       4.884
  WS02006256           JUNCTION      0.00   983.00     0  02:30           0        4.96      -0.001
  WS02004138           JUNCTION      0.00   380.00     0  00:00           0        7.98       0.073
  WS02004139           JUNCTION      0.32   395.85     0  00:00     0.00905        7.99       0.571
  WS02004407           JUNCTION      0.00   547.20     0  04:45           0        7.81       0.106
  WS02006228           JUNCTION      0.00   548.38     0  04:39           0        8.02       0.206
  WS02006229           JUNCTION      0.00   550.29     0  06:11           0        8.04       0.193
  WS02006280           JUNCTION      0.00   279.03     0  02:13           0        1.08       0.006
  WS02006284           JUNCTION      0.10   279.00     0  02:12      0.0027        1.08       0.109
  WS02006287           JUNCTION      0.00   278.86     0  02:12           0        1.08       0.066
  WSF200               JUNCTION      0.00   545.54     0  04:47           0        7.67       0.058
  HS02004901           JUNCTION     14.81    14.81     0  02:06      0.0396      0.0398       4.624
  HS02004881           JUNCTION      6.10    54.62     0  02:11      0.0173       0.183       0.069
  HS02004876           JUNCTION     10.00    48.75     0  02:12      0.0332       0.166       0.318
  HS02004870           JUNCTION     10.90    38.99     0  02:12      0.0327       0.133       0.080
  HS02004862           JUNCTION      9.13    28.78     0  02:12      0.0384       0.101       0.166
  HS02004856           JUNCTION      8.10    19.75     0  02:12      0.0246      0.0637       2.307
  HS02004852           JUNCTION      0.00    12.15     0  02:12           0      0.0392       0.130
  HS02004848           JUNCTION     18.51    18.51     0  02:14      0.0783      0.0783       0.056
  HS02004842           JUNCTION      0.00     6.94     0  02:22           0      0.0522      33.167
  HS02004837           JUNCTION     24.03    29.96     0  02:11       0.236       0.275       0.296
  HS02004830           JUNCTION      0.15    30.09     0  02:12     0.00423       0.266       0.466
  HS02004824           JUNCTION     20.85    50.75     0  02:14       0.103       0.367       0.147
  HS02004817           JUNCTION      0.60    51.35     0  02:15      0.0169       0.383       4.546
  HS02004807           JUNCTION     20.43    70.16     0  02:13      0.0602       0.427       1.000
  HS02004802           JUNCTION      0.00    70.58     0  02:14           0       0.423       0.970
  HS02004799           JUNCTION     15.85   177.85     0  02:10      0.0487       0.577       0.410
  HS02004792           JUNCTION     69.97   162.29     0  02:10       0.211       0.529       0.078
  HS02004788           JUNCTION     23.25    94.35     0  02:10       0.115       0.319       0.123
  HS02004785           JUNCTION      0.15    71.49     0  02:10     0.00423       0.206       0.233
  HS02004777           JUNCTION      0.03    71.86     0  02:09    0.000846       0.206       2.572
  HS02004770           JUNCTION     59.12    72.92     0  02:08       0.169       0.207       1.516
  HS02004480           JUNCTION      0.00   209.80     0  02:11           0       0.676       0.111
  HS02004479           JUNCTION      0.00    32.74     0  02:12           0       0.111       0.660
  HS02004478           JUNCTION      0.00   278.84     0  02:12           0        1.08       0.051
  YS02001745           JUNCTION    103.28   122.99     0  03:07         1.1         1.1       0.582
  YS02001748           JUNCTION      0.04   288.60     0  02:53     0.00127        1.11       1.783
  YS02001751           JUNCTION      0.01   314.06     0  02:54     0.00031        1.09       2.011
  YS02001754           JUNCTION      0.26   147.86     0  03:04     0.00733        1.06       2.287
  YS02001762           JUNCTION      0.00   166.24     0  03:00           0         1.2       1.811
  YS02001765           JUNCTION      0.00   161.56     0  03:00           0         1.2       2.093
  YS02001767           JUNCTION      0.54   161.51     0  02:55      0.0151        1.22       3.013
  YS02001770           JUNCTION    133.34   165.00     0  02:53        1.27        1.29       2.533
  YS02001774           JUNCTION      0.00    46.22     0  02:08           0      0.0688      58.549
  YS02001779           JUNCTION      0.01    37.53     0  02:55    0.000141       0.027     127.652
  YS02001882           JUNCTION      0.00     4.90     0  02:05           0      0.0068      35.724
  YS02001884           JUNCTION      0.00    13.87     0  02:05           0      0.0266      23.759
  YS02001759           JUNCTION    130.69   292.80     0  03:00        1.18        2.34       0.988
  YS02001887           JUNCTION    172.76   174.30     0  02:33         1.4        1.41       0.528
  YS02001890           JUNCTION      0.00   173.40     0  02:33           0        1.38       0.590
  YS02001898           JUNCTION      0.00   173.14     0  02:33           0        1.37       0.176
  YS02001901           JUNCTION      0.00   172.61     0  02:33           0        1.37       0.426
  YS02001904           JUNCTION      0.00   172.41     0  02:34           0        1.37       0.394
  YS02001907           JUNCTION      0.00   312.05     0  02:54           0        2.95       0.768
  YS02001910           JUNCTION      0.00   143.53     0  02:54           0         1.6       0.661
  YS02001915           JUNCTION     92.70   140.78     0  02:55       0.936         1.6       0.303
  YS02001918           JUNCTION      0.00    47.83     0  02:59           0       0.665       0.196
  YS02001619           JUNCTION     90.08    90.08     0  02:44       0.925       0.925       1.286
  YS02001629           JUNCTION      0.00   164.36     0  03:03           0       0.845       3.412
  YS02001641           JUNCTION      0.00   201.01     0  02:55           0        1.83       1.172
  YS02001644           JUNCTION     98.08   297.56     0  02:53        1.06        2.86       0.922
  YS02001652           JUNCTION      0.00   161.34     0  02:54           0       0.985       2.383
  YS02001655           JUNCTION      0.15   343.75     0  02:58     0.00434        1.01       2.136
  YS02001920           JUNCTION      2.87    47.25     0  03:01      0.0809       0.667       0.336
  YS02001923           JUNCTION      0.04    44.38     0  03:01     0.00106       0.587       0.060
  YS02001926           JUNCTION      0.05    44.38     0  03:01     0.00147       0.588       0.418
  YS02001929           JUNCTION     44.34    44.34     0  03:01       0.587       0.587       0.058
  YS02001658           JUNCTION      0.00   251.54     0  02:57           0        1.04       1.806
  YS02001661           JUNCTION      0.00   391.36     0  04:02           0        1.37       0.435
  YS02001664           JUNCTION    122.35   344.93     0  04:01        1.03        1.36       0.125
  YS02001622           JUNCTION      0.00   118.92     0  03:03           0       0.913       3.563
  YS02001633           JUNCTION     99.63   203.83     0  02:55        1.09        1.89       1.727
  YS02001649           JUNCTION      0.00   433.36     0  02:51           0        3.75       1.014
  YS02001757           JUNCTION      0.00   760.62     0  02:53           0        7.03       1.333
  YS02001895           JUNCTION      0.00   172.87     0  02:32           0        1.37       0.289
  YS02001625           JUNCTION      0.00   165.00     0  03:03           0       0.882       4.638
  YS02163301           JUNCTION      0.00   106.76     0  02:56           0       0.829       3.013
  YS02163601           JUNCTION      0.11   203.06     0  02:56      0.0031        1.85       1.646
  YS02164001           JUNCTION      0.00   203.34     0  02:55           0        1.83       1.126
  YS02001647           JUNCTION      0.00   297.35     0  02:55           0        2.81       0.994
  YSB1154              JUNCTION     17.78    17.78     0  02:10      0.0591      0.0603       2.454
  YSB6556              JUNCTION      0.00    17.71     0  02:11           0      0.0612       2.079
  YSB1174              JUNCTION     16.67    16.67     0  02:06       0.043      0.0437       3.025
  YSB1171              JUNCTION      0.00    32.56     0  02:11           0        0.11       6.076
  YS02006553           JUNCTION      0.00   310.57     0  02:54           0        2.94       0.497
  YS02006561           JUNCTION      0.00   481.59     0  02:49           0        4.16       0.012
  YS02006556           JUNCTION      0.00   309.94     0  02:49           0        2.94       0.360
  YS02006558           JUNCTION    145.63   452.74     0  02:33        1.27        4.19       0.115
  YS02001783           JUNCTION      0.00   450.56     0  02:49           0        4.16       0.040
  YS02001784           JUNCTION      1.06   452.93     0  03:09      0.0299        4.19       0.062
  YS02001786           JUNCTION      0.06   451.13     0  02:42     0.00159        4.19       0.062
  YS02001788           JUNCTION      0.07   465.02     0  03:10       0.002        4.19       0.035
  YS02001790           JUNCTION      0.15   482.45     0  03:25     0.00437        4.19       0.025
  YS02001791           JUNCTION      0.00   530.68     0  03:25           0        4.19       0.017
  YS02001793           JUNCTION      0.00   557.81     0  03:25           0        4.19      -0.053
  WSC                  OUTFALL       0.00   898.34     0  04:46           0        16.1       0.000
  JK-storage           STORAGE       0.00  1026.26     0  02:27           0        4.35     -18.480
  CC-storage           STORAGE       0.00   763.87     0  02:53           0        6.94       0.789
  XR-storage           STORAGE     387.22   387.22     0  02:45        7.84        8.44      -0.602
  
  
  **********************
  Node Surcharge Summary
  **********************
  
  Surcharging occurs when water rises above the top of the highest conduit.
  ---------------------------------------------------------------------
                                               Max. Height   Min. Depth
                                   Hours       Above Crown    Below Rim
  Node                 Type      Surcharged         Meters       Meters
  ---------------------------------------------------------------------
  WS02006109           JUNCTION        2.57          0.171        1.649
  WS02006110           JUNCTION        0.55          0.024        1.826
  WS02006112           JUNCTION        0.85          0.075        1.605
  WS02006230           JUNCTION        0.41          0.048        1.522
  WS02006231           JUNCTION        0.92          0.161        1.369
  WS02006232           JUNCTION        2.39          0.371        1.109
  WS02006234           JUNCTION        1.64          0.366        0.874
  WS02006235           JUNCTION        1.96          0.460        0.830
  WS02006238           JUNCTION        2.13          0.481        0.949
  WS02006240           JUNCTION        1.80          0.439        0.951
  WS02006242           JUNCTION        2.17          0.518        0.302
  WS02006243           JUNCTION        1.60          0.468        0.302
  WS02006245           JUNCTION        1.48          0.465        0.385
  WS02006247           JUNCTION        1.57          0.487        0.273
  WS02006248           JUNCTION        1.23          0.380        0.000
  WS02006249           JUNCTION        1.37          0.390        0.000
  WS02006239           JUNCTION        1.84          0.446        0.844
  WS02006251           JUNCTION        0.34          0.204        0.976
  WS02006252           JUNCTION        2.48          0.382        0.718
  WS02006253           JUNCTION        0.37          0.239        2.241
  WS02006256           JUNCTION        6.40          2.050        0.000
  WS02006228           JUNCTION        2.50          0.205        1.995
  YS02001748           JUNCTION        3.00          0.184        1.006
  YS02001751           JUNCTION        4.66          0.468        0.732
  YS02001754           JUNCTION        5.04          0.700        0.450
  YS02001762           JUNCTION        5.47          0.973        0.177
  YS02001765           JUNCTION        5.44          0.931        0.169
  YS02001767           JUNCTION        5.42          0.900        0.130
  YS02001770           JUNCTION        5.40          0.868        0.052
  YS02001774           JUNCTION        5.46          0.964        0.086
  YS02001779           JUNCTION        4.94          0.680        0.000
  YS02001759           JUNCTION        5.50          0.999        0.211
  YS02001619           JUNCTION        4.60          0.501        0.109
  YS02001629           JUNCTION        4.60          0.470        0.000
  YS02001641           JUNCTION        5.46          0.948        0.152
  YS02001644           JUNCTION        5.46          0.920        0.000
  YS02001652           JUNCTION        5.19          0.774        0.356
  YS02001655           JUNCTION        4.71          0.570        0.630
  YS02001658           JUNCTION        3.04          0.313        0.987
  YS02001622           JUNCTION        4.63          0.515        0.105
  YS02001633           JUNCTION        5.43          0.940        0.120
  YS02001649           JUNCTION        5.48          0.985        0.065
  YS02001757           JUNCTION        5.56          1.095        0.115
  YS02001625           JUNCTION        5.30          0.780        0.000
  YS02163301           JUNCTION        5.41          0.894        0.136
  YS02163601           JUNCTION        5.48          1.011        0.069
  YS02164001           JUNCTION        5.44          0.944        0.156
  YS02001647           JUNCTION        5.26          0.759        0.141
  YS02001790           JUNCTION        0.29          0.374        0.783
  YS02001791           JUNCTION        0.32          0.403        1.517
  YS02001793           JUNCTION        0.51          0.790        1.810
  
  
  *********************
  Node Flooding Summary
  *********************
  
  Flooding refers to all water that overflows a node, whether it ponds or not.
  --------------------------------------------------------------------------
                                                             Total   Maximum
                                 Maximum   Time of Max       Flood    Ponded
                        Hours       Rate    Occurrence      Volume     Depth
  Node                 Flooded       LPS   days hr:min    10^6 ltr    Meters
  --------------------------------------------------------------------------
  WS02006248              0.01      7.18      0  03:41       0.000     0.000
  WS02006249              0.29     95.06      0  06:09       0.043     0.000
  WS02006256              2.35    788.52      0  04:40       2.435     0.000
  YS02001779              0.05      5.83      0  04:08       0.000     0.000
  YS02001629              0.01      5.13      0  04:08       0.000     0.000
  YS02001644              0.21     16.80      0  04:14       0.003     0.000
  YS02001625              0.09     24.19      0  04:08       0.002     0.000
  JK-storage              0.22    448.90      0  03:10       0.185     0.000
  
  
  **********************
  Storage Volume Summary
  **********************
  
  --------------------------------------------------------------------------------------------------
                         Average     Avg  Evap Exfil       Maximum     Max    Time of Max    Maximum
                          Volume    Pcnt  Pcnt  Pcnt        Volume    Pcnt     Occurrence    Outflow
  Storage Unit           1000 m3    Full  Loss  Loss       1000 m3    Full    days hr:min        LPS
  --------------------------------------------------------------------------------------------------
  JK-storage               0.076      26     0     0         0.291     100       0  03:07     983.00
  CC-storage               2.884      18     0     0         3.691      24       0  05:03     400.00
  XR-storage               0.256      28     0     0         0.766      83       0  07:16     380.00
  
  
  ***********************
  Outfall Loading Summary
  ***********************
  
  ---------------------------------------------------------------------------------------------------------------------------------
                         Flow       Avg       Max       Total         Total         Total         Total         Total         Total
                         Freq      Flow      Flow      Volume           COD            SS            TN            TP         NH4-N
  Outfall Node           Pcnt       LPS       LPS    10^6 ltr            kg            kg            kg            kg            kg
  ---------------------------------------------------------------------------------------------------------------------------------
  WSC                   99.98    647.38    898.34      16.058      1934.684      3160.403       151.589        18.409        93.323
  ---------------------------------------------------------------------------------------------------------------------------------
  System                99.98    647.38    898.34      16.058      1934.684      3160.403       151.589        18.409        93.323
  
  
  ********************
  Link Flow Summary
  ********************
  
  -----------------------------------------------------------------------------
                                 Maximum  Time of Max   Maximum    Max/    Max/
                                  |Flow|   Occurrence   |Veloc|    Full    Full
  Link                 Type          LPS  days hr:min     m/sec    Flow   Depth
  -----------------------------------------------------------------------------
  WS02003066WSF200     CONDUIT    545.54     0  04:47      2.83    0.09    0.23
  WS02006287WS02006284 CONDUIT    278.91     0  02:12      1.79    0.13    0.25
  WS02006284WS02006280 CONDUIT    279.03     0  02:13      2.04    0.12    0.23
  WS02006280WS02006229 CONDUIT    279.03     0  02:13      3.28    0.06    0.17
  WS02006229WS02006228 CONDUIT    548.38     0  04:39      1.09    1.82    1.00
  WS02006256WS02006235 CONDUIT    288.92     0  00:00      4.23    3.06    1.00
  WS02006253WS02006251 CONDUIT    109.69     0  03:41      0.55    0.33    1.00
  WS02006252WS02006251 CONDUIT    401.16     0  04:18      3.19    1.47    1.00
  WS02006251WS02006249 CONDUIT    419.39     0  06:09      1.13    1.21    1.00
  WS02006249WS02006248 CONDUIT    397.05     0  04:20      1.19    2.17    1.00
  WS02006248WS02006247 CONDUIT    394.48     0  04:20      1.16    0.86    1.00
  WS02006247WS02006245 CONDUIT    394.86     0  04:20      1.14    3.13    1.00
  WS02006245WS02006243 CONDUIT    394.51     0  04:20      1.18    1.17    1.00
  WS02006243WS02006242 CONDUIT    394.20     0  04:20      1.06    0.84    1.00
  WS02006242WS02006240 CONDUIT    394.28     0  04:20      1.02    1.57    1.00
  WS02006240WS02006239 CONDUIT    394.12     0  04:20      1.04    1.24    1.00
  WS02006239WS02006238 CONDUIT    394.09     0  04:20      1.02    1.26    1.00
  WS02006238WS02006235 CONDUIT    394.48     0  04:20      1.45    0.88    1.00
  WS02006235WS02006234 CONDUIT    524.77     0  06:11      1.36    5.54    1.00
  WS02006234WS02006232 CONDUIT    525.56     0  06:11      1.39    1.06    1.00
  WS02006232WS02006231 CONDUIT    525.91     0  06:11      1.37    1.10    1.00
  WS02006231WS02006230 CONDUIT    526.51     0  06:11      1.37    7.99    1.00
  WS02006230WS02006229 CONDUIT    538.87     0  06:11      1.40   11.99    1.00
  WS02006228WS02006109 CONDUIT    548.24     0  04:39      1.09    2.40    1.00
  WS02006116WS02004401 CONDUIT    547.48     0  04:44      1.00    0.75    0.85
  WS02006115WS02006116 CONDUIT    547.97     0  04:44      1.02    0.70    0.77
  WS02006113WS02006111 CONDUIT    571.53     0  04:41      2.48    0.69    0.47
  WS02006112WS02006115 CONDUIT    557.38     0  04:41      0.77    0.33    0.87
  WS02006111WS02006112 CONDUIT    555.06     0  04:41      1.60    0.26    0.68
  WS02006110WS02006113 CONDUIT    549.67     0  04:39      1.30    0.50    0.79
  WS02006109WS02006110 CONDUIT    549.28     0  04:39      1.09    1.06    1.00
  WS02004411WS02004412 CONDUIT    545.79     0  04:47      0.93    0.78    0.70
  WS02004401WS02004402 CONDUIT    547.32     0  04:44      1.00    0.66    0.87
  WS02004413WS02003067 CONDUIT    545.47     0  04:47      1.12    0.23    0.60
  WS02004412WS02004413 CONDUIT    545.60     0  04:47      0.83    0.37    0.78
  WS02004410WS02004411 CONDUIT    546.06     0  04:46      0.94    0.75    0.69
  WS02004409WS02004410 CONDUIT    546.54     0  04:46      0.97    0.71    0.68
  WS02004407WS02004409 CONDUIT    547.12     0  04:45      1.47    0.19    0.49
  WS02004406WS02004407 CONDUIT    547.20     0  04:45      1.05    0.24    0.63
  WS02004405WS02004406 CONDUIT    547.29     0  04:45      1.10    1.08    0.96
  WS02004404WS02004405 CONDUIT    547.22     0  04:45      1.15    5.36    0.97
  WS02004403WS02004404 CONDUIT    547.11     0  04:45      0.98    0.40    0.93
  WS02004402WS02004403 CONDUIT    547.16     0  04:45      1.02    0.79    0.89
  WS02004139WS02001211 CONDUIT    381.52     0  03:09      0.90    0.48    0.59
  WS02004138WS02004139 CONDUIT    395.52     0  00:00      3.64    0.08    0.44
  WS02003067WS02003066 CONDUIT    545.53     0  04:47      1.22    0.17    0.42
  WS02001213WS02003059 CONDUIT    394.05     0  03:08      0.89    0.65    0.76
  WS02001212WS02001213 CONDUIT    391.67     0  03:09      1.32    0.60    0.46
  WS02001211WS02001212 CONDUIT    390.28     0  03:09      0.78    0.30    0.64
  WS02003072WS02003073 CONDUIT    895.94     0  04:45      1.70    1.94    0.47
  WS02003069WS02003072 CONDUIT    895.49     0  04:44      1.60    0.43    0.50
  WS02003060WS02003069 CONDUIT    895.11     0  04:43      1.85    0.35    0.44
  WS02003059WS02003060 CONDUIT    397.42     0  03:08      0.95    0.26    0.65
  HS02004901HS02004770 CONDUIT     14.04     0  02:09      0.06    0.05    0.36
  HS02004876HS02004881 CONDUIT     48.93     0  02:12      0.72    0.52    0.10
  HS02004870HS02004876 CONDUIT     38.96     0  02:13      0.50    0.03    0.11
  HS02004842HS02004848 CONDUIT      6.94     0  02:22      0.04    0.00    0.28
  HS02004837HS02004842 CONDUIT      7.23     0  02:23      0.42    0.00    0.30
  HS02004830HS02004837 CONDUIT     29.94     0  02:12      0.49    0.03    0.09
  HS02004824HS02004830 CONDUIT     30.08     0  02:13      0.53    0.04    0.08
  HS02004817HS02004824 CONDUIT     50.75     0  02:15      0.17    0.02    0.43
  HS02004770HS02004777 CONDUIT     71.83     0  02:09      0.28    0.13    0.37
  HS02004799HS02004480 CONDUIT    177.58     0  02:10      0.69    0.22    0.37
  HS02004792HS02004799 CONDUIT    162.18     0  02:10      0.79    0.10    0.29
  HS02004788HS02004792 CONDUIT     94.26     0  02:11      0.93    0.06    0.15
  HS02004785HS02004788 CONDUIT     71.39     0  02:11      0.60    0.54    0.17
  HS02004777HS02004785 CONDUIT     71.34     0  02:10      0.33    0.09    0.31
  HS02004480HS02004478 CONDUIT    209.83     0  02:11      1.09    0.88    0.27
  HS02004479HS02004480 CONDUIT     33.00     0  02:13      0.17    0.03    0.36
  HS02004862HS02004870 CONDUIT     28.74     0  02:13      0.54    0.03    0.08
  HS02004848HS02004852 CONDUIT     12.15     0  02:12      0.36    0.01    0.05
  HS02004856HS02004862 CONDUIT     19.70     0  02:13      0.40    0.02    0.07
  HS02004852HS02004856 CONDUIT     12.09     0  02:13      0.17    0.01    0.10
  HS02004802HS02004478 CONDUIT     71.16     0  02:15      0.35    0.06    0.29
  HS02004478WS02006287 CONDUIT    278.86     0  02:12      1.49    0.08    0.21
  HS02004817HS02004807 CONDUIT     52.11     0  02:16      0.14    0.03    0.56
  HS02004807HS02004802 CONDUIT     70.58     0  02:14      0.30    0.13    0.34
  YS02001759YS02001757 CONDUIT    295.20     0  03:00      0.38    0.21    1.00
  YS02001762YS02001759 CONDUIT    170.71     0  03:00      0.22    0.20    1.00
  YS02001765YS02001762 CONDUIT    166.24     0  03:00      0.24    0.16    1.00
  YS02001770YS02001767 CONDUIT    160.98     0  02:55      0.30    0.64    1.00
  YS02001774YS02001770 CONDUIT     46.22     0  02:08      0.13    0.03    1.00
  YS02001779YS02001774 CONDUIT     37.53     0  02:55      0.07    0.02    1.00
  YS02001649YS02001757 CONDUIT    435.50     0  02:51      0.55    0.26    1.00
  YS02001767YS02001765 CONDUIT    161.56     0  03:00      0.27    0.20    1.00
  YS02006561YS02001783 CONDUIT    450.56     0  02:49      1.95    0.23    0.59
  YS02001783YS02001784 CONDUIT    451.87     0  03:09      1.39    0.62    0.89
  YS02001784YS02001785 CONDUIT    451.07     0  02:42      1.49    1.05    0.94
  YS02001788YS02001790 CONDUIT    482.30     0  03:25      2.05    0.36    1.00
  YS02001790YS02001791 CONDUIT    530.68     0  03:25      2.40    0.58    1.00
  YS02001791YS02001793 CONDUIT    557.81     0  03:25      4.90    0.24    1.00
  YS02001910YS02001907 CONDUIT    144.57     0  02:54      0.49    0.08    0.83
  YS02001786YS02001788 CONDUIT    464.95     0  03:10      1.94    0.90    0.95
  YS02001915YS02001910 CONDUIT    143.53     0  02:54      0.45    0.07    0.62
  YS02001918YS02001915 CONDUIT     49.99     0  02:58      0.44    0.03    0.34
  YS02001923YS02001920 CONDUIT     44.38     0  03:01      0.51    0.02    0.17
  YS02001926YS02001923 CONDUIT     44.35     0  03:01      0.57    0.06    0.16
  YS02001929YS02001926 CONDUIT     44.33     0  03:01      0.60    0.02    0.15
  YS02001920YS02001918 CONDUIT     47.83     0  02:59      0.52    0.05    0.21
  YS02001629YS02163301 CONDUIT    106.76     0  02:56      0.14    0.13    1.00
  YS02001619YS02001622 CONDUIT    118.92     0  03:03      0.69    0.18    1.00
  YS02001622YS02001625 CONDUIT    165.00     0  03:03      0.28    0.09    1.00
  YS02001625YS02001629 CONDUIT    164.36     0  03:03      0.28    0.08    1.00
  YS02163301YS02001633 CONDUIT    104.61     0  02:55      0.13    0.10    1.00
  YS02163601YS02164001 CONDUIT    203.34     0  02:55      0.26    0.18    1.00
  YS02164001YS02001641 CONDUIT    201.01     0  02:55      0.26    0.27    1.00
  YS02001641YS02001644 CONDUIT    199.82     0  02:53      0.25    0.65    1.00
  YS02001647YS02001649 CONDUIT    297.86     0  02:31      0.38    0.16    1.00
  YS02006553YS02006556 CONDUIT    309.94     0  02:49      0.41    0.27    0.91
  YS02006556YS02006558 CONDUIT    311.40     0  02:53      0.41    0.25    0.94
  YSB6556YSB1171       CONDUIT     17.97     0  02:13      0.07    0.02    0.62
  YS02001907YS02006553 CONDUIT    310.57     0  02:54      0.35    0.37    1.00
  YS02006558YS02006561 CONDUIT    481.59     0  02:49      2.71    1.06    0.61
  YS02001633YS02163601 CONDUIT    202.95     0  02:56      0.26    0.21    1.00
  YS02001644YS02001647 CONDUIT    297.35     0  02:55      0.38    0.17    1.00
  YS02001745YS02001748 CONDUIT    209.66     0  02:55      1.52    0.08    0.91
  YS02001748YS02001751 CONDUIT    314.05     0  02:54      1.17    0.16    1.00
  YS02001751YS02001754 CONDUIT    147.60     0  03:04      0.93    0.07    1.00
  YS02001754YS02001757 CONDUIT    154.55     0  02:54      0.33    0.06    1.00
  YS02001882YS02001884 CONDUIT      4.90     0  02:05      0.07    0.01    0.56
  YS02001884YS02001887 CONDUIT     13.87     0  02:05      0.05    0.02    0.66
  YS02001890YS02001895 CONDUIT    172.87     0  02:32      0.34    0.08    0.62
  YS02001895YS02001898 CONDUIT    173.14     0  02:33      0.46    0.30    0.49
  YS02001898YS02001901 CONDUIT    172.61     0  02:33      0.38    0.11    0.57
  YS02001901YS02001904 CONDUIT    172.41     0  02:34      0.34    0.27    0.62
  YS02001904YS02001907 CONDUIT    174.15     0  02:34      0.27    0.06    0.78
  YS02001887YS02001890 CONDUIT    173.40     0  02:33      0.29    0.30    0.71
  YS02001652YS02001649 CONDUIT    162.00     0  02:54      0.35    0.08    1.00
  YS02001655YS02001652 CONDUIT    161.34     0  02:54      0.97    0.08    1.00
  YS02001658YS02001655 CONDUIT    343.60     0  02:58      1.35    0.15    1.00
  YS02001661YS02001658 CONDUIT    251.16     0  02:55      1.59    0.10    0.99
  YS02001664YS02001661 CONDUIT    391.36     0  04:02      1.31    0.12    0.68
  YSB1154YSB6556       CONDUIT     17.71     0  02:11      0.19    0.03    0.51
  YSB1174YSB1171       CONDUIT     15.63     0  02:08      0.06    0.02    0.63
  YSB1171HS02004479    CONDUIT     32.74     0  02:12      0.54    0.02    0.49
  HS02004881HS02006253 CONDUIT     54.61     0  02:12      1.90    0.01    0.50
  YS02001793JiankangQianchi CONDUIT   1026.26     0  02:27     14.91    0.08    1.00
  YS02001757CaochengTiaoxuchi CONDUIT    763.87     0  02:53      1.48    0.34    1.00
  WSF200WS02003060     CONDUIT    545.09     0  04:48      2.09    0.12    0.34
  1                    CONDUIT    898.34     0  04:46      3.23    0.31    0.38
  CC-Pump-1            PUMP       200.00     0  04:00              1.00
  CC-Pump-2            PUMP       200.00     0  04:10              1.00
  JK-Pump-1            PUMP       300.00     0  00:00              1.00
  JK-Pump-2            PUMP       683.00     0  02:30              1.00
  XR-Pump-1            PUMP        95.00     0  00:00              1.00
  XR-Pump-2            PUMP        95.00     0  00:00              1.00
  XR-Pump-3            PUMP        95.00     0  00:00              1.00
  XR-Pump-4            PUMP        95.00     0  00:00              1.00
  
  
  ***************************
  Flow Classification Summary
  ***************************
  
  -------------------------------------------------------------------------------------
                      Adjusted    ---------- Fraction of Time in Flow Class ---------- 
                       /Actual         Up    Down  Sub   Sup   Up    Down  Norm  Inlet 
  Conduit               Length    Dry  Dry   Dry   Crit  Crit  Crit  Crit  Ltd   Ctrl  
  -------------------------------------------------------------------------------------
  WS02003066WSF200        1.00   0.01  0.02  0.00  0.00  0.97  0.00  0.00  0.76  0.00
  WS02006287WS02006284    1.00   0.03  0.02  0.00  0.80  0.15  0.00  0.00  0.77  0.00
  WS02006284WS02006280    1.00   0.04  0.00  0.00  0.00  0.00  0.00  0.96  0.00  0.00
  WS02006280WS02006229    1.00   0.04  0.00  0.00  0.00  0.00  0.00  0.96  0.00  0.00
  WS02006229WS02006228    1.00   0.00  0.00  0.00  1.00  0.00  0.00  0.00  0.00  0.00
  WS02006256WS02006235    1.00   0.00  0.00  0.00  1.00  0.00  0.00  0.00  0.00  0.00
  WS02006253WS02006251    1.00   0.02  0.02  0.00  0.96  0.00  0.00  0.00  0.00  0.00
  WS02006252WS02006251    1.00   0.18  0.00  0.00  0.03  0.00  0.79  0.00  0.00  0.00
  WS02006251WS02006249    1.00   0.00  0.00  0.00  1.00  0.00  0.00  0.00  0.32  0.00
  WS02006249WS02006248    1.00   0.00  0.01  0.00  0.90  0.00  0.10  0.00  0.00  0.00
  WS02006248WS02006247    1.00   0.01  0.00  0.00  0.99  0.00  0.00  0.00  0.21  0.00
  WS02006247WS02006245    1.00   0.00  0.00  0.00  1.00  0.00  0.00  0.00  0.00  0.00
  WS02006245WS02006243    1.00   0.00  0.00  0.00  0.94  0.00  0.00  0.05  0.00  0.00
  WS02006243WS02006242    1.00   0.00  0.00  0.00  1.00  0.00  0.00  0.00  0.31  0.00
  WS02006242WS02006240    1.00   0.00  0.00  0.00  1.00  0.00  0.00  0.00  0.00  0.00
  WS02006240WS02006239    1.00   0.00  0.00  0.00  0.94  0.00  0.00  0.06  0.01  0.00
  WS02006239WS02006238    1.00   0.00  0.00  0.00  1.00  0.00  0.00  0.00  0.19  0.00
  WS02006238WS02006235    1.00   0.00  0.00  0.00  1.00  0.00  0.00  0.00  0.00  0.00
  WS02006235WS02006234    1.00   0.00  0.00  0.00  0.95  0.00  0.05  0.00  0.00  0.00
  WS02006234WS02006232    1.00   0.00  0.00  0.00  1.00  0.00  0.00  0.00  0.14  0.00
  WS02006232WS02006231    1.00   0.00  0.00  0.00  1.00  0.00  0.00  0.00  0.00  0.00
  WS02006231WS02006230    1.00   0.00  0.00  0.00  0.66  0.00  0.34  0.00  0.00  0.00
  WS02006230WS02006229    1.00   0.00  0.00  0.00  1.00  0.00  0.00  0.00  0.00  0.00
  WS02006228WS02006109    1.00   0.00  0.00  0.00  1.00  0.00  0.00  0.00  0.00  0.00
  WS02006116WS02004401    1.00   0.01  0.00  0.00  0.99  0.00  0.00  0.00  0.00  0.00
  WS02006115WS02006116    1.00   0.01  0.00  0.00  0.99  0.00  0.00  0.00  0.00  0.00
  WS02006113WS02006111    1.00   0.01  0.00  0.00  0.00  0.99  0.00  0.00  0.18  0.00
  WS02006112WS02006115    1.00   0.01  0.00  0.00  0.99  0.00  0.00  0.00  0.00  0.00
  WS02006111WS02006112    1.00   0.01  0.00  0.00  0.99  0.00  0.00  0.00  0.98  0.00
  WS02006110WS02006113    1.00   0.00  0.00  0.00  0.99  0.00  0.00  0.00  0.00  0.00
  WS02006109WS02006110    1.00   0.00  0.00  0.00  0.99  0.00  0.00  0.00  0.00  0.00
  WS02004411WS02004412    1.00   0.02  0.00  0.00  0.98  0.00  0.00  0.00  0.00  0.00
  WS02004401WS02004402    1.00   0.01  0.00  0.00  0.99  0.00  0.00  0.00  0.00  0.00
  WS02004413WS02003067    1.00   0.02  0.01  0.00  0.00  0.00  0.98  0.00  0.00  0.00
  WS02004412WS02004413    1.00   0.02  0.00  0.00  0.98  0.00  0.00  0.00  0.01  0.00
  WS02004410WS02004411    1.00   0.02  0.00  0.00  0.98  0.00  0.00  0.00  0.00  0.00
  WS02004409WS02004410    1.00   0.02  0.00  0.00  0.98  0.00  0.00  0.00  0.02  0.00
  WS02004407WS02004409    1.00   0.02  0.00  0.00  0.98  0.00  0.00  0.00  0.95  0.00
  WS02004406WS02004407    1.00   0.00  0.01  0.00  0.98  0.00  0.00  0.00  0.00  0.00
  WS02004405WS02004406    1.00   0.00  0.00  0.00  1.00  0.00  0.00  0.00  0.00  0.00
  WS02004404WS02004405    1.00   0.00  0.00  0.00  1.00  0.00  0.00  0.00  0.00  0.00
  WS02004403WS02004404    1.00   0.00  0.01  0.00  0.99  0.00  0.00  0.00  0.00  0.00
  WS02004402WS02004403    1.00   0.01  0.00  0.00  0.99  0.00  0.00  0.00  0.00  0.00
  WS02004139WS02001211    1.00   0.00  0.00  0.00  1.00  0.00  0.00  0.00  0.00  0.00
  WS02004138WS02004139    1.00   0.00  0.03  0.00  0.97  0.00  0.00  0.00  1.00  0.00
  WS02003067WS02003066    1.00   0.02  0.00  0.00  0.97  0.00  0.00  0.00  0.00  0.00
  WS02001213WS02003059    1.00   0.00  0.00  0.00  1.00  0.00  0.00  0.00  0.00  0.00
  WS02001212WS02001213    1.00   0.00  0.00  0.00  0.89  0.00  0.11  0.00  0.00  0.00
  WS02001211WS02001212    1.00   0.00  0.00  0.00  1.00  0.00  0.00  0.00  0.00  0.00
  WS02003072WS02003073    1.00   0.00  0.00  0.00  0.00  0.00  0.00  1.00  0.00  0.00
  WS02003069WS02003072    1.00   0.00  0.00  0.00  1.00  0.00  0.00  0.00  0.14  0.00
  WS02003060WS02003069    1.00   0.00  0.00  0.00  0.98  0.02  0.00  0.00  0.12  0.00
  WS02003059WS02003060    1.00   0.00  0.00  0.00  1.00  0.00  0.00  0.00  0.01  0.00
  HS02004901HS02004770    1.00   0.04  0.00  0.00  0.96  0.00  0.00  0.00  0.01  0.00
  HS02004876HS02004881    1.00   0.01  0.00  0.00  0.99  0.00  0.00  0.00  0.00  0.00
  HS02004870HS02004876    1.00   0.00  0.00  0.00  0.99  0.00  0.00  0.00  0.95  0.00
  HS02004842HS02004848    1.00   0.00  0.04  0.00  0.96  0.00  0.00  0.00  0.65  0.00
  HS02004837HS02004842    1.00   0.00  0.00  0.00  1.00  0.00  0.00  0.00  0.11  0.00
  HS02004830HS02004837    1.00   0.00  0.00  0.00  1.00  0.00  0.00  0.00  0.99  0.00
  HS02004824HS02004830    1.00   0.00  0.00  0.00  1.00  0.00  0.00  0.00  0.00  0.00
  HS02004817HS02004824    1.00   0.00  0.00  0.00  1.00  0.00  0.00  0.00  1.00  0.00
  HS02004770HS02004777    1.00   0.00  0.04  0.00  0.96  0.00  0.00  0.00  0.06  0.00
  HS02004799HS02004480    1.00   0.00  0.01  0.00  0.95  0.00  0.04  0.00  0.00  0.00
  HS02004792HS02004799    1.00   0.00  0.00  0.00  1.00  0.00  0.00  0.00  0.98  0.00
  HS02004788HS02004792    1.00   0.00  0.00  0.00  1.00  0.00  0.00  0.00  0.98  0.00
  HS02004785HS02004788    1.00   0.00  0.00  0.00  1.00  0.00  0.00  0.00  0.00  0.00
  HS02004777HS02004785    1.00   0.00  0.00  0.00  1.00  0.00  0.00  0.00  0.18  0.00
  HS02004480HS02004478    1.00   0.04  0.00  0.00  0.84  0.00  0.00  0.12  0.00  0.00
  HS02004479HS02004480    1.00   0.01  0.00  0.00  0.99  0.00  0.00  0.00  0.15  0.00
  HS02004862HS02004870    1.00   0.00  0.00  0.00  1.00  0.00  0.00  0.00  0.05  0.00
  HS02004848HS02004852    1.00   0.04  0.00  0.00  0.96  0.00  0.00  0.00  0.72  0.00
  HS02004856HS02004862    1.00   0.00  0.06  0.00  0.94  0.00  0.00  0.00  0.77  0.00
  HS02004852HS02004856    1.00   0.04  0.01  0.00  0.96  0.00  0.00  0.00  0.83  0.00
  HS02004802HS02004478    1.00   0.04  0.01  0.00  0.96  0.00  0.00  0.00  0.01  0.00
  HS02004478WS02006287    1.00   0.05  0.00  0.00  0.90  0.05  0.00  0.00  0.75  0.00
  HS02004817HS02004807    1.00   0.00  0.04  0.00  0.96  0.00  0.00  0.00  0.00  0.00
  HS02004807HS02004802    1.00   0.04  0.00  0.00  0.96  0.00  0.00  0.00  0.01  0.00
  YS02001759YS02001757    1.00   0.00  0.00  0.00  1.00  0.00  0.00  0.00  0.18  0.00
  YS02001762YS02001759    1.00   0.00  0.00  0.00  1.00  0.00  0.00  0.00  0.04  0.00
  YS02001765YS02001762    1.00   0.00  0.00  0.00  1.00  0.00  0.00  0.00  0.20  0.00
  YS02001770YS02001767    1.00   0.00  0.00  0.00  1.00  0.00  0.00  0.00  0.00  0.00
  YS02001774YS02001770    1.00   0.00  0.04  0.00  0.96  0.00  0.00  0.00  0.05  0.00
  YS02001779YS02001774    1.00   0.00  0.00  0.00  1.00  0.00  0.00  0.00  0.24  0.00
  YS02001649YS02001757    1.00   0.00  0.00  0.00  1.00  0.00  0.00  0.00  0.18  0.00
  YS02001767YS02001765    1.00   0.00  0.00  0.00  1.00  0.00  0.00  0.00  0.01  0.00
  YS02006561YS02001783    1.00   0.06  0.00  0.00  0.02  0.92  0.00  0.00  0.65  0.00
  YS02001783YS02001784    1.00   0.00  0.06  0.00  0.94  0.00  0.00  0.00  0.01  0.00
  YS02001784YS02001785    1.00   0.00  0.00  0.00  1.00  0.00  0.00  0.00  0.23  0.00
  YS02001788YS02001790    1.00   0.00  0.00  0.00  0.11  0.89  0.00  0.00  0.68  0.00
  YS02001790YS02001791    1.00   0.00  0.00  0.00  0.06  0.94  0.00  0.00  0.58  0.00
  YS02001791YS02001793    1.00   0.00  0.00  0.00  0.12  0.88  0.00  0.00  0.06  0.00
  YS02001910YS02001907    1.00   0.00  0.00  0.00  0.99  0.00  0.00  0.01  0.13  0.00
  YS02001786YS02001788    1.00   0.00  0.00  0.00  0.09  0.91  0.00  0.00  0.00  0.00
  YS02001915YS02001910    1.00   0.00  0.00  0.00  0.99  0.00  0.00  0.00  0.22  0.00
  YS02001918YS02001915    1.00   0.00  0.00  0.00  0.99  0.01  0.00  0.00  0.70  0.00
  YS02001923YS02001920    1.00   0.00  0.00  0.00  1.00  0.00  0.00  0.00  1.00  0.00
  YS02001926YS02001923    1.00   0.00  0.02  0.00  0.00  0.00  0.98  0.00  0.00  0.00
  YS02001929YS02001926    1.00   0.00  0.04  0.00  0.96  0.00  0.00  0.00  0.87  0.00
  YS02001920YS02001918    1.00   0.00  0.00  0.00  1.00  0.00  0.00  0.00  0.00  0.00
  YS02001629YS02163301    1.00   0.05  0.00  0.00  0.94  0.00  0.00  0.00  0.00  0.00
  YS02001619YS02001622    1.00   0.04  0.00  0.00  0.96  0.00  0.00  0.00  0.00  0.00
  YS02001622YS02001625    1.00   0.04  0.00  0.00  0.96  0.00  0.00  0.00  0.11  0.00
  YS02001625YS02001629    1.00   0.04  0.03  0.00  0.92  0.00  0.01  0.00  0.00  0.00
  YS02163301YS02001633    1.00   0.00  0.05  0.00  0.95  0.00  0.00  0.00  0.00  0.00
  YS02163601YS02164001    1.00   0.00  0.02  0.00  0.98  0.00  0.00  0.00  0.00  0.00
  YS02164001YS02001641    1.00   0.00  0.02  0.00  0.98  0.00  0.00  0.00  0.07  0.00
  YS02001641YS02001644    1.00   0.00  0.00  0.00  1.00  0.00  0.00  0.00  0.00  0.00
  YS02001647YS02001649    1.00   0.00  0.06  0.00  0.94  0.00  0.00  0.00  0.01  0.00
  YS02006553YS02006556    1.00   0.01  0.00  0.00  0.99  0.00  0.00  0.00  0.03  0.00
  YS02006556YS02006558    1.00   0.00  0.00  0.00  1.00  0.00  0.00  0.00  0.00  0.00
  YSB6556YSB1171          1.00   0.02  0.02  0.00  0.97  0.00  0.00  0.00  0.00  0.00
  YS02001907YS02006553    1.00   0.00  0.01  0.00  0.99  0.00  0.00  0.00  0.00  0.00
  YS02006558YS02006561    1.00   0.06  0.00  0.00  0.00  0.94  0.00  0.00  0.68  0.00
  YS02001633YS02163601    1.00   0.00  0.00  0.00  1.00  0.00  0.00  0.00  0.19  0.00
  YS02001644YS02001647    1.00   0.00  0.06  0.00  0.94  0.00  0.00  0.00  0.00  0.00
  YS02001745YS02001748    1.00   0.00  0.00  0.00  0.90  0.00  0.00  0.09  0.07  0.00
  YS02001748YS02001751    1.00   0.00  0.00  0.00  0.97  0.03  0.00  0.00  0.20  0.00
  YS02001751YS02001754    1.00   0.00  0.00  0.00  0.93  0.00  0.00  0.07  0.02  0.00
  YS02001754YS02001757    1.00   0.00  0.00  0.00  1.00  0.00  0.00  0.00  0.24  0.00
  YS02001882YS02001884    1.00   0.05  0.00  0.00  0.95  0.00  0.00  0.00  0.00  0.00
  YS02001884YS02001887    1.00   0.02  0.01  0.00  0.97  0.00  0.00  0.00  0.00  0.00
  YS02001890YS02001895    1.00   0.00  0.05  0.00  0.94  0.00  0.00  0.00  0.00  0.00
  YS02001895YS02001898    1.00   0.06  0.00  0.00  0.93  0.00  0.01  0.00  0.00  0.00
  YS02001898YS02001901    1.00   0.05  0.00  0.00  0.94  0.00  0.00  0.00  0.02  0.00
  YS02001901YS02001904    1.00   0.05  0.00  0.00  0.95  0.00  0.00  0.00  0.00  0.00
  YS02001904YS02001907    1.00   0.00  0.05  0.00  0.95  0.00  0.00  0.00  0.00  0.00
  YS02001887YS02001890    1.00   0.00  0.00  0.00  0.99  0.00  0.01  0.00  0.00  0.00
  YS02001652YS02001649    1.00   0.00  0.00  0.00  1.00  0.00  0.00  0.00  0.23  0.00
  YS02001655YS02001652    1.00   0.00  0.00  0.00  0.93  0.00  0.00  0.07  0.02  0.00
  YS02001658YS02001655    1.00   0.00  0.05  0.00  0.92  0.03  0.00  0.00  0.08  0.00
  YS02001661YS02001658    1.00   0.05  0.00  0.00  0.90  0.05  0.00  0.00  0.06  0.00
  YS02001664YS02001661    1.00   0.04  0.00  0.00  0.90  0.06  0.00  0.00  0.30  0.00
  YSB1154YSB6556          1.00   0.03  0.00  0.00  0.97  0.00  0.00  0.00  0.02  0.00
  YSB1174YSB1171          1.00   0.02  0.01  0.00  0.97  0.00  0.00  0.00  0.00  0.00
  YSB1171HS02004479       1.00   0.01  0.00  0.00  0.98  0.00  0.00  0.00  0.13  0.00
  HS02004881HS02006253    1.00   0.02  0.00  0.00  0.77  0.00  0.00  0.21  0.51  0.00
  YS02001793JiankangQianchi    1.00   0.00  0.00  0.00  0.58  0.42  0.00  0.00  0.56  0.00
  YS02001757CaochengTiaoxuchi    1.00   0.00  0.08  0.00  0.92  0.00  0.00  0.00  0.00  0.00
  WSF200WS02003060        1.00   0.00  0.01  0.00  0.72  0.27  0.00  0.00  0.48  0.00
  1                       1.00   0.00  0.00  0.00  0.00  1.00  0.00  0.00  0.43  0.00
  
  
  *************************
  Conduit Surcharge Summary
  *************************
  
  ----------------------------------------------------------------------------
                                                           Hours        Hours 
                         --------- Hours Full --------   Above Full   Capacity
  Conduit                Both Ends  Upstream  Dnstream   Normal Flow   Limited
  ----------------------------------------------------------------------------
  WS02006229WS02006228        2.50      2.67      2.50      4.23         2.50
  WS02006256WS02006235        5.46      5.47      6.40      3.12         0.01
  WS02006253WS02006251        1.28      1.28      1.42      0.01         0.01
  WS02006252WS02006251        1.31      1.31      2.48      2.15         0.01
  WS02006251WS02006249        1.29      1.32      1.37      1.03         0.53
  WS02006249WS02006248        1.23      1.23      1.37      3.81         0.01
  WS02006248WS02006247        1.33      1.33      1.57      0.01         0.01
  WS02006247WS02006245        1.48      1.63      1.48      3.98         1.48
  WS02006245WS02006243        1.51      1.55      1.60      0.80         0.42
  WS02006243WS02006242        1.69      1.69      2.17      0.01         0.01
  WS02006242WS02006240        1.80      1.80      2.34      2.45         0.01
  WS02006240WS02006239        1.80      1.87      1.84      1.27         0.56
  WS02006239WS02006238        2.06      2.18      2.13      1.36         0.74
  WS02006238WS02006235        2.04      2.04      2.38      0.01         0.01
  WS02006235WS02006234        1.64      1.64      1.96      5.37         0.01
  WS02006234WS02006232        1.73      1.73      2.39      0.55         0.55
  WS02006232WS02006231        0.92      0.92      2.39      0.74         0.01
  WS02006231WS02006230        0.41      0.41      1.01      5.54         0.01
  WS02006230WS02006229        3.43      3.79      3.43      5.85         3.43
  WS02006228WS02006109        2.57      3.12      2.57      5.15         2.57
  WS02006112WS02006115        0.01      0.01      0.85      0.01         0.01
  WS02006111WS02006112        0.01      0.01      4.34      0.01         0.01
  WS02006110WS02006113        0.01      0.01      2.89      0.01         0.01
  WS02006109WS02006110        0.55      0.55      3.12      0.57         0.01
  WS02004405WS02004406        0.01      0.01      0.01      0.62         0.01
  WS02004404WS02004405        0.01      0.01      0.01      5.78         0.01
  WS02003072WS02003073        0.01      0.01      0.01      5.10         0.01
  YS02001759YS02001757        5.50      5.50      5.56      0.01         0.01
  YS02001762YS02001759        5.47      5.47      5.50      0.01         0.01
  YS02001765YS02001762        5.44      5.44      5.47      0.01         0.01
  YS02001770YS02001767        5.42      5.42      5.42      0.01         0.67
  YS02001774YS02001770        5.40      5.40      5.46      0.01         0.01
  YS02001779YS02001774        4.94      4.94      5.46      0.01         0.01
  YS02001649YS02001757        5.48      5.48      5.56      0.01         0.01
  YS02001767YS02001765        5.42      5.42      5.44      0.01         0.01
  YS02001784YS02001785        0.01      0.01      0.01      0.55         0.01
  YS02001788YS02001790        0.01      0.01      0.29      0.01         0.01
  YS02001790YS02001791        0.29      0.29      0.32      0.01         0.01
  YS02001791YS02001793        0.32      0.32      0.59      0.01         0.01
  YS02001629YS02163301        5.38      5.38      5.41      0.01         0.01
  YS02001619YS02001622        4.60      4.60      4.63      0.01         0.01
  YS02001622YS02001625        4.63      4.63      5.30      0.01         0.01
  YS02001625YS02001629        4.60      4.60      5.30      0.01         0.01
  YS02163301YS02001633        5.41      5.41      5.45      0.01         0.01
  YS02163601YS02164001        5.44      5.44      5.48      0.01         0.01
  YS02164001YS02001641        5.44      5.44      5.46      0.01         0.01
  YS02001641YS02001644        5.46      5.46      5.46      0.01         0.96
  YS02001647YS02001649        5.26      5.26      5.48      0.01         0.01
  YS02001907YS02006553        0.65      0.65      0.92      0.01         0.01
  YS02006558YS02006561        0.01      0.01      0.01      0.18         0.01
  YS02001633YS02163601        5.43      5.43      5.48      0.01         0.01
  YS02001644YS02001647        5.26      5.26      5.46      0.01         0.01
  YS02001745YS02001748        0.01      0.01      3.00      0.01         0.01
  YS02001748YS02001751        3.88      3.88      4.65      0.01         0.01
  YS02001751YS02001754        4.65      4.65      5.04      0.01         0.01
  YS02001754YS02001757        5.23      5.23      5.56      0.01         0.01
  YS02001652YS02001649        5.28      5.28      5.48      0.01         0.01
  YS02001655YS02001652        4.70      4.70      5.19      0.01         0.01
  YS02001658YS02001655        3.04      3.04      4.70      0.01         0.01
  YS02001661YS02001658        0.01      0.01      3.04      0.01         0.01
  YS02001664YS02001661        0.01      0.01      0.04      0.01         0.01
  HS02004881HS02006253        0.01      0.01      0.37      0.01         0.01
  YS02001793JiankangQianchi        0.51      0.51      3.13      0.01         0.01
  YS02001757CaochengTiaoxuchi        4.31      4.31      5.56      0.01         0.01
  
  
  ***************
  Pumping Summary
  ***************
  
  ---------------------------------------------------------------------------------------------------------
                                                  Min       Avg       Max     Total     Power    % Time Off
                        Percent   Number of      Flow      Flow      Flow    Volume     Usage    Pump Curve
  Pump                 Utilized   Start-Ups       LPS       LPS       LPS  10^6 ltr     Kw-hr    Low   High
  ---------------------------------------------------------------------------------------------------------
  CC-Pump-1               55.31           1      0.00    184.02    200.00     2.820      3.81    0.0    0.0
  CC-Pump-2               42.54           8      0.00     97.75    200.00     1.380      2.17    0.0    0.0
  JK-Pump-1               48.93           5      0.00    166.29    300.00     2.419     44.16    0.0    0.0
  JK-Pump-2               34.04           5      0.00    225.31    683.00     2.541     47.67    0.0   96.3
  XR-Pump-1               87.23           4      0.00     90.05     95.00     2.166     44.51    0.0    0.0
  XR-Pump-2               87.23           4      0.00     90.05     95.00     2.166     44.51    0.0    0.0
  XR-Pump-3               82.97           5      0.00     71.55     95.00     1.824     36.97    0.0    0.0
  XR-Pump-4               82.97           5      0.00     71.55     95.00     1.824     36.97    0.0    0.0
  
  
  ***************************
  Link Pollutant Load Summary
  ***************************
  
  ------------------------------------------------------------------------------------------
                                 COD            SS            TN            TP         NH4-N
  Link                            kg            kg            kg            kg            kg
  ------------------------------------------------------------------------------------------
  WS02003066WSF200           475.150       817.013        15.603         1.492         8.575
  WS02006287WS02006284       133.424       234.304         6.764         0.759         3.989
  WS02006284WS02006280       133.847       234.988         6.803         0.764         4.014
  WS02006280WS02006229       133.832       234.960         6.803         0.764         4.014
  WS02006229WS02006228       488.039       838.214        15.461         1.450         8.430
  WS02006256WS02006235        81.906       139.785         2.233         0.193         1.185
  WS02006253WS02006251        26.314        47.466         0.754         0.066         0.399
  WS02006252WS02006251       269.763       455.747         6.247         0.470         3.121
  WS02006251WS02006249       286.205       486.640         6.768         0.519         3.404
  WS02006249WS02006248       282.401       480.196         6.679         0.512         3.359
  WS02006248WS02006247       281.898       479.392         6.666         0.511         3.353
  WS02006247WS02006245       281.226       478.280         6.650         0.510         3.345
  WS02006245WS02006243       280.602       477.318         6.631         0.508         3.334
  WS02006243WS02006242       280.690       477.595         6.633         0.508         3.336
  WS02006242WS02006240       280.708       477.798         6.630         0.508         3.334
  WS02006240WS02006239       281.332       479.065         6.641         0.509         3.340
  WS02006239WS02006238       282.850       481.668         6.693         0.514         3.369
  WS02006238WS02006235       283.468       482.576         6.718         0.517         3.384
  WS02006235WS02006234       358.677       610.700         8.772         0.695         4.474
  WS02006234WS02006232       357.980       609.541         8.761         0.694         4.470
  WS02006232WS02006231       357.051       607.988         8.734         0.692         4.455
  WS02006231WS02006230       356.102       606.391         8.715         0.691         4.446
  WS02006230WS02006229       355.757       605.924         8.714         0.691         4.447
  WS02006228WS02006109       487.077       836.644        15.439         1.448         8.419
  WS02006116WS02004401       490.801       842.996        16.065         1.532         8.822
  WS02006115WS02006116       492.299       845.462        16.109         1.536         8.846
  WS02006113WS02006111       492.422       845.043        16.154         1.541         8.874
  WS02006112WS02006115       493.881       848.101        16.166         1.542         8.877
  WS02006111WS02006112       491.758       843.938        16.136         1.540         8.865
  WS02006110WS02006113       493.231       846.392        16.183         1.544         8.890
  WS02006109WS02006110       494.688       848.819        16.238         1.549         8.921
  WS02004411WS02004412       479.481       824.240        15.763         1.508         8.665
  WS02004401WS02004402       489.256       840.426        16.011         1.527         8.792
  WS02004413WS02003067       476.042       818.478        15.631         1.494         8.591
  WS02004412WS02004413       477.854       821.538        15.706         1.502         8.634
  WS02004410WS02004411       480.817       826.447        15.809         1.512         8.691
  WS02004409WS02004410       482.154       828.666        15.857         1.517         8.717
  WS02004407WS02004409       483.280       830.513        15.894         1.520         8.737
  WS02004406WS02004407       483.627       831.053        15.901         1.521         8.741
  WS02004405WS02004406       485.521       834.193        15.977         1.528         8.784
  WS02004404WS02004405       486.840       836.361        15.997         1.529         8.792
  WS02004403WS02004404       486.569       835.977        15.919         1.518         8.741
  WS02004402WS02004403       487.854       838.116        15.965         1.523         8.767
  WS02004139WS02001211      1330.635      2137.670       123.095        15.297        76.668
  WS02004138WS02004139      1336.547      2147.183       123.628        15.364        77.000
  WS02003067WS02003066       475.389       817.413        15.612         1.493         8.580
  WS02001213WS02003059      1360.580      2185.479       126.033        15.666        78.508
  WS02001212WS02001213      1370.080      2200.728       126.918        15.776        79.059
  WS02001211WS02001212      1373.239      2205.792       127.214        15.813        79.244
  WS02003072WS02003073      1929.312      3151.919       150.887        18.318        92.876
  WS02003069WS02003072      1935.573      3162.010       151.446        18.388        93.224
  WS02003060WS02003069      1939.056      3167.668       151.702        18.418        93.380
  WS02003059WS02003060      1355.888      2177.967       125.572        15.608        78.219
  HS02004901HS02004770         3.768         6.956         0.072         0.005         0.033
  HS02004876HS02004881        14.539        27.150         0.392         0.032         0.203
  HS02004870HS02004876        11.124        20.660         0.335         0.029         0.177
  HS02004842HS02004848         2.020         3.613         0.044         0.003         0.020
  HS02004837HS02004842         6.638        10.962         0.512         0.062         0.314
  HS02004830HS02004837        51.426        84.620         4.286         0.527         2.655
  HS02004824HS02004830        52.176        85.822         4.358         0.536         2.700
  HS02004817HS02004824        60.190       100.738         4.551         0.549         2.797
  HS02004770HS02004777        14.452        26.902         0.308         0.020         0.140
  HS02004799HS02004480        57.128       101.671         2.229         0.231         1.253
  HS02004792HS02004799        52.707        92.938         2.194         0.233         1.246
  HS02004788HS02004792        33.316        58.475         1.677         0.185         0.978
  HS02004785HS02004788        15.948        29.310         0.460         0.040         0.236
  HS02004777HS02004785        15.414        28.444         0.412         0.034         0.206
  HS02004480HS02004478        69.801       125.895         2.399         0.241         1.326
  HS02004479HS02004480        16.990        31.101         0.581         0.061         0.329
  HS02004862HS02004870         8.297        15.080         0.278         0.026         0.150
  HS02004848HS02004852         2.587         4.686         0.056         0.004         0.025
  HS02004856HS02004862         4.908         9.221         0.101         0.006         0.047
  HS02004852HS02004856         2.583         4.678         0.056         0.004         0.025
  HS02004802HS02004478        63.924       108.905         4.391         0.522         2.679
  HS02004478WS02006287       133.602       234.601         6.779         0.761         3.998
  HS02004817HS02004807        58.824        98.553         4.421         0.533         2.717
  HS02004807HS02004802        64.587       109.960         4.455         0.530         2.720
  YS02001759YS02001757       148.411       253.294         3.294         0.232         1.639
  YS02001762YS02001759        78.460       134.936         1.921         0.142         0.977
  YS02001765YS02001762        77.856       133.799         1.932         0.144         0.986
  YS02001770YS02001767        75.355       129.713         1.633         0.104         0.796
  YS02001774YS02001770         4.823         8.279         0.120         0.009         0.061
  YS02001779YS02001774         3.255         5.449         0.154         0.016         0.090
  YS02001649YS02001757       220.815       364.680         5.002         0.381         2.457
  YS02001767YS02001765        77.811       133.654         1.945         0.145         0.995
  YS02006561YS02001783       307.467       520.979         8.068         0.677         4.233
  YS02001783YS02001784       307.390       520.867         8.065         0.677         4.231
  YS02001784YS02001785       314.771       532.698         8.778         0.766         4.678
  YS02001788YS02001790       315.451       533.811         8.852         0.775         4.724
  YS02001790YS02001791       316.529       535.568         8.953         0.788         4.787
  YS02001791YS02001793       316.453       535.439         8.949         0.788         4.785
  YS02001910YS02001907       105.554       175.550         3.866         0.365         2.155
  YS02001786YS02001788       315.009       533.093         8.807         0.770         4.696
  YS02001915YS02001910       105.462       175.357         3.819         0.358         2.124
  YS02001918YS02001915        54.189        86.541         2.675         0.295         1.577
  YS02001923YS02001920        34.190        54.554         0.732         0.052         0.361
  YS02001926YS02001923        33.826        53.968         0.693         0.047         0.337
  YS02001929YS02001926        33.559        53.531         0.662         0.043         0.317
  YS02001920YS02001918        54.122        86.451         2.650         0.292         1.560
  YS02001629YS02163301        38.643        64.082         0.857         0.054         0.397
  YS02001619YS02001622        41.605        68.640         0.927         0.058         0.428
  YS02001622YS02001625        40.627        67.163         0.903         0.056         0.416
  YS02001625YS02001629        39.495        65.483         0.875         0.055         0.404
  YS02163301YS02001633        39.012        64.733         0.863         0.054         0.400
  YS02163601YS02164001       108.166       178.040         2.338         0.166         1.128
  YS02164001YS02001641       107.860       177.546         2.319         0.164         1.117
  YS02001641YS02001644       108.588       178.761         2.324         0.164         1.118
  YS02001647YS02001649       173.554       284.949         3.568         0.251         1.708
  YS02006553YS02006556       223.056       376.652         6.194         0.543         3.309
  YS02006556YS02006558       223.008       376.557         6.161         0.538         3.287
  YSB6556YSB1171               8.959        16.554         0.239         0.023         0.130
  YS02001907YS02006553       223.036       376.637         6.191         0.543         3.308
  YS02006558YS02006561       307.441       520.920         8.066         0.677         4.232
  YS02001633YS02163601       108.800       178.986         2.320         0.162         1.113
  YS02001644YS02001647       174.400       286.220         3.587         0.252         1.717
  YS02001745YS02001748        59.497       100.614         1.391         0.091         0.688
  YS02001748YS02001751        63.470       107.067         1.802         0.143         0.946
  YS02001751YS02001754        61.907       104.345         1.828         0.150         0.970
  YS02001754YS02001757        62.675       105.566         1.977         0.170         1.066
  YS02001882YS02001884         0.769         1.242         0.021         0.002         0.011
  YS02001884YS02001887         2.875         4.815         0.069         0.006         0.036
  YS02001890YS02001895       118.584       202.678         2.349         0.179         1.165
  YS02001895YS02001898       118.444       202.477         2.343         0.179         1.161
  YS02001898YS02001901       118.321       202.302         2.340         0.178         1.159
  YS02001901YS02001904       118.361       202.399         2.359         0.181         1.172
  YS02001904YS02001907       119.094       203.614         2.451         0.193         1.230
  YS02001887YS02001890       119.438       203.998         2.412         0.187         1.203
  YS02001652YS02001649        49.052        82.516         1.461         0.130         0.760
  YS02001655YS02001652        49.561        83.336         1.476         0.132         0.767
  YS02001658YS02001655        47.847        80.756         1.179         0.092         0.575
  YS02001661YS02001658        46.741        78.956         0.991         0.067         0.453
  YS02001664YS02001661        58.397        97.165         1.262         0.085         0.575
  YSB1154YSB6556               8.465        15.766         0.178         0.015         0.091
  YSB1174YSB1171               6.145        11.516         0.162         0.015         0.087
  YSB1171HS02004479           16.893        30.956         0.572         0.060         0.323
  HS02004881HS02006253        16.352        30.685         0.419         0.034         0.215
  YS02001793JiankangQianchi       317.529       537.163         9.011         0.795         4.822
  YS02001757CaochengTiaoxuchi       426.433       715.692         9.933         0.745         4.961
  WSF200WS02003060           474.657       816.206        15.593         1.491         8.570
  1                         1934.684      3160.403       151.589        18.409        93.323
  CC-Pump-1                  180.817       305.401         4.185         0.315         2.090
  CC-Pump-2                   88.977       150.396         2.063         0.156         1.031
  JK-Pump-1                   87.435       149.568         2.294         0.194         1.206
  JK-Pump-2                  108.022       183.153         3.072         0.272         1.646
  XR-Pump-1                  365.177       586.798        33.714         4.189        20.995
  XR-Pump-2                  365.177       586.798        33.714         4.189        20.995
  XR-Pump-3                  305.080       489.980        28.283         3.516        17.619
  XR-Pump-4                  305.080       489.980        28.283         3.516        17.619
  

  Analysis begun on:  Sun Jul 11 13:16:28 2021
  Analysis ended on:  Sun Jul 11 13:16:31 2021
  Total elapsed time: 00:00:03