
  EPA STORM WATER MANAGEMENT MODEL - VERSION 5.1 (Build 5.3.0.dev0)
  --------------------------------------------------------------

  WARNING 04: minimum elevation drop used for Conduit WS02004404WS02004405
  WARNING 03: negative offset ignored for Link YS02001904YS02001907
  
  *********************************************************
  NOTE: The summary statistics displayed in this report are
  based on results found at every computational time step,  
  not just on results from each reporting time step.
  *********************************************************
  
  ****************
  Analysis Options
  ****************
  Flow Units ............... LPS
  Process Models:
    Rainfall/Runoff ........ YES
    RDII ................... NO
    Snowmelt ............... NO
    Groundwater ............ NO
    Flow Routing ........... YES
    Ponding Allowed ........ NO
    Water Quality .......... YES
  Infiltration Method ...... HORTON
  Flow Routing Method ...... DYNWAVE
  Surcharge Method ......... EXTRAN
  Starting Date ............ 08/28/2015 08:00:00
  Ending Date .............. 08/28/2015 15:50:00
  Antecedent Dry Days ...... 8.0
  Report Time Step ......... 00:01:00
  Wet Time Step ............ 00:01:00
  Dry Time Step ............ 00:01:00
  Routing Time Step ........ 5.00 sec
  Variable Time Step ....... YES
  Maximum Trials ........... 8
  Number of Threads ........ 4
  Head Tolerance ........... 0.001500 m
  
  
  **************************        Volume         Depth
  Runoff Quantity Continuity     hectare-m            mm
  **************************     ---------       -------
  Total Precipitation ......         1.214         2.657
  Evaporation Loss .........         0.000         0.000
  Infiltration Loss ........         0.301         0.658
  Surface Runoff ...........         0.583         1.276
  Final Storage ............         0.331         0.724
  Continuity Error (%) .....        -0.024
  
  
  **************************           COD            SS            TN            TP         NH4-N
  Runoff Quality Continuity             kg            kg            kg            kg            kg
  **************************    ----------    ----------    ----------    ----------    ----------
  Initial Buildup ..........     41378.656     70582.865      1804.177       168.684      1032.807
  Surface Buildup ..........        13.160        12.523         3.470         0.323         2.062
  Wet Deposition ...........         0.000         0.000         0.000         0.000         0.000
  Sweeping Removal .........         0.000         0.000         0.000         0.000         0.000
  Infiltration Loss ........         9.222        14.647         0.204         0.013         0.094
  BMP Removal ..............         0.000         0.000         0.000         0.000         0.000
  Surface Runoff ...........       226.675       351.591         4.977         0.307         2.328
  Remaining Buildup ........     41155.849     70229.044      1802.464       168.687      1032.447
  Continuity Error (%) .....         0.000         0.000         0.000         0.000         0.000
  
  
  **************************        Volume        Volume
  Flow Routing Continuity        hectare-m      10^6 ltr
  **************************     ---------     ---------
  Dry Weather Inflow .......         0.616         6.165
  Wet Weather Inflow .......         0.583         5.826
  Groundwater Inflow .......         0.000         0.000
  RDII Inflow ..............         0.000         0.000
  External Inflow ..........         0.102         1.024
  External Outflow .........         0.985         9.848
  Flooding Loss ............         0.021         0.211
  Evaporation Loss .........         0.000         0.000
  Exfiltration Loss ........         0.000         0.000
  Initial Stored Volume ....         0.076         0.761
  Final Stored Volume ......         0.427         4.266
  Continuity Error (%) .....        -3.994
  
  
  **************************           COD            SS            TN            TP         NH4-N
  Quality Routing Continuity            kg            kg            kg            kg            kg
  **************************    ----------    ----------    ----------    ----------    ----------
  Dry Weather Inflow .......      1541.201      2465.922       147.955        18.494        92.472
  Wet Weather Inflow .......       226.576       351.450         4.974         0.307         2.327
  Groundwater Inflow .......         0.000         0.000         0.000         0.000         0.000
  RDII Inflow ..............         0.000         0.000         0.000         0.000         0.000
  External Inflow ..........       183.418       293.469        17.608         2.201        11.005
  External Outflow .........      1444.159      2312.181       132.866        16.504        82.772
  Flooding Loss ............        11.170        17.467         0.481         0.050         0.276
  Exfiltration Loss ........         0.000         0.000         0.000         0.000         0.000
  Mass Reacted .............         0.000         0.000         0.000         0.000         0.000
  Initial Stored Mass ......         0.000         0.000         0.000         0.000         0.000
  Final Stored Mass ........       336.589       528.067        23.714         2.798        14.415
  Continuity Error (%) .....         8.163         8.137         7.903         7.856         7.883
  
  
  *************************
  Highest Continuity Errors
  *************************
  Node HS02004842 (38.26%)
  Node YS02001884 (33.12%)
  Node YS02001774 (32.74%)
  Node JK-storage (-13.95%)
  Node YS02001625 (12.28%)
  
  
  ***************************
  Time-Step Critical Elements
  ***************************
  Link WS02006280WS02006229 (37.94%)
  Link YS02001793JiankangQianchi (23.86%)
  Link WS02006238WS02006235 (16.11%)
  Link WS02006256WS02006235 (5.74%)
  Link WS02003066WSF200 (3.47%)
  
  
  ********************************
  Highest Flow Instability Indexes
  ********************************
  Link WS02006113WS02006111 (41)
  Link YS02001767YS02001765 (14)
  Link YS02001759YS02001757 (14)
  Link YS02001765YS02001762 (14)
  Link YS02001762YS02001759 (14)
  
  
  *************************
  Routing Time Step Summary
  *************************
  Minimum Time Step           :     0.70 sec
  Average Time Step           :     3.42 sec
  Maximum Time Step           :     5.00 sec
  Percent in Steady State     :    -0.00
  Average Iterations per Step :     2.30
  Percent Not Converging      :     0.27
  
  
  ***************************
  Subcatchment Runoff Summary
  ***************************
  
  ------------------------------------------------------------------------------------------------------------------------------
                            Total      Total      Total      Total     Imperv       Perv      Total       Total     Peak  Runoff
                           Precip      Runon       Evap      Infil     Runoff     Runoff     Runoff      Runoff   Runoff   Coeff
  Subcatchment                 mm         mm         mm         mm         mm         mm         mm    10^6 ltr      LPS
  ------------------------------------------------------------------------------------------------------------------------------
  sub0                       2.66       0.00       0.00       0.19       2.43       0.00       2.43        0.00     0.74   0.913
  sub1                       2.66       0.00       0.00       0.29       2.28       0.00       2.28        0.02     3.83   0.859
  sub2                       2.66       0.00       0.00       0.98       1.60       0.00       1.60        0.01     3.34   0.602
  sub3                       2.66       0.00       0.00       0.98       1.57       0.00       1.57        0.04     6.73   0.590
  sub4                       2.66       0.00       0.00       0.29       2.16       0.00       2.16        0.05     7.38   0.813
  sub5                       2.66       0.00       0.00       0.19       2.38       0.00       2.38        0.03     6.82   0.897
  sub7                       2.66       0.00       0.00       0.24       2.36       0.00       2.36        0.01     2.44   0.888
  sub8                       2.66       0.00       0.00       0.24       2.35       0.00       2.35        0.02     4.29   0.885
  sub9                       2.66       0.00       0.00       0.24       2.35       0.00       2.35        0.01     3.18   0.884
  sub10                      2.66       0.00       0.00       0.21       2.36       0.00       2.36        0.03     6.83   0.890
  sub11                      2.66       0.00       0.00       0.21       2.38       0.00       2.38        0.03     8.09   0.895
  sub12                      2.66       0.00       0.00       0.35       2.27       0.00       2.27        0.02     6.88   0.852
  sub14                      2.66       0.00       0.00       0.24       2.35       0.00       2.35        0.02     6.21   0.883
  sub15                      2.66       0.00       0.00       0.80       1.80       0.00       1.80        0.03     8.40   0.678
  sub16                      2.66       0.00       0.00       0.88       1.74       0.00       1.74        0.02     6.05   0.655
  sub17                      2.66       0.00       0.00       0.85       1.77       0.00       1.77        0.02     4.89   0.665
  sub22                      2.66       0.00       0.00       1.14       1.48       0.00       1.48        0.09    27.72   0.555
  sub23                      2.66       0.00       0.00       0.98       1.63       0.00       1.63        0.08    23.62   0.614
  sub60                      2.66       0.00       0.00       0.32       1.37       0.00       1.37        0.42    32.88   0.517
  sub61                      2.66       0.00       0.00       0.45       1.53       0.00       1.53        0.47    42.51   0.575
  sub62                      2.66       0.00       0.00       0.21       1.62       0.00       1.62        0.50    43.05   0.610
  sub63                      2.66       0.00       0.00       0.77       1.38       0.00       1.38        0.42    40.19   0.520
  sub64                      2.66       0.00       0.00       0.40       1.31       0.00       1.31        0.40    31.16   0.493
  sub65                      2.66       0.00       0.00       0.35       1.32       0.00       1.32        0.41    31.56   0.497
  sub66                      2.66       0.00       0.00       0.77       1.16       0.00       1.16        0.35    28.82   0.435
  sub67                      2.66       0.00       0.00       0.21       1.84       0.00       1.84        0.57    56.93   0.693
  sub68                      2.66       0.00       0.00       0.37       1.64       0.00       1.64        0.50    47.38   0.617
  sub69                      2.66       0.00       0.00       0.40       1.83       0.00       1.83        0.43    48.78   0.690
  sub70                      2.66       1.87       0.00       1.54       2.08       0.00       2.08        0.48    35.33   0.460
  sub71                      2.66       0.00       0.00       0.21       1.53       0.00       1.53        0.36    29.72   0.575
  sub72                      2.66       0.00       0.00       0.19       0.99       0.00       0.99        0.20    13.37   0.373
  1                          2.66       2.03       0.00       1.28       2.01       0.09       2.10        0.49    31.49   0.448
  2                          2.66       0.00       0.00       1.97       0.56       0.02       0.58        0.23    28.97   0.219
  
  
  ****************************
  Subcatchment Washoff Summary
  ****************************
  
  ------------------------------------------------------------------------------------------
                                 COD            SS            TN            TP         NH4-N
  Subcatchment                    kg            kg            kg            kg            kg
  ------------------------------------------------------------------------------------------
  sub0                         0.273         0.474         0.004         0.000         0.002
  sub1                         1.078         1.874         0.021         0.001         0.010
  sub2                         0.615         1.029         0.015         0.001         0.007
  sub3                         1.444         2.368         0.035         0.002         0.016
  sub4                         2.289         3.898         0.051         0.003         0.024
  sub5                         2.428         4.162         0.043         0.003         0.021
  sub7                         0.597         1.067         0.012         0.001         0.006
  sub8                         0.915         1.663         0.020         0.001         0.009
  sub9                         0.761         1.363         0.016         0.001         0.007
  sub10                        2.063         3.592         0.039         0.003         0.019
  sub11                        2.112         3.749         0.041         0.003         0.020
  sub12                        1.780         3.122         0.033         0.002         0.016
  sub14                        1.593         2.825         0.032         0.002         0.015
  sub15                        1.815         3.062         0.038         0.003         0.017
  sub16                        1.187         2.019         0.024         0.002         0.011
  sub17                        1.069         1.796         0.021         0.002         0.010
  sub22                        5.363         8.876         0.111         0.008         0.050
  sub23                        3.464         5.974         0.084         0.005         0.037
  sub60                       14.334        21.908         0.335         0.018         0.159
  sub61                       18.677        28.478         0.389         0.024         0.186
  sub62                       19.876        30.888         0.447         0.025         0.213
  sub63                       14.420        21.861         0.347         0.022         0.155
  sub64                       16.159        23.749         0.333         0.022         0.156
  sub65                       16.578        24.470         0.346         0.022         0.163
  sub66                       10.377        15.514         0.260         0.015         0.118
  sub67                       30.041        46.332         0.573         0.039         0.275
  sub68                       21.516        33.281         0.469         0.028         0.221
  sub69                       21.048        33.154         0.438         0.028         0.206
  sub70                       28.366        44.672         0.660         0.042         0.299
  sub71                       13.211        20.684         0.322         0.016         0.153
  sub72                        7.161        10.283         0.153         0.009         0.073
  1                           11.136        17.681         0.275         0.018         0.122
  2                            2.342         3.550         0.089         0.005         0.036
  ------------------------------------------------------------------------------------------
  System                     276.088       429.417         6.075         0.377         2.833
  
  
  ******************
  Node Depth Summary
  ******************
  
  ---------------------------------------------------------------------------------
                                 Average  Maximum  Maximum  Time of Max    Reported
                                   Depth    Depth      HGL   Occurrence   Max Depth
  Node                 Type       Meters   Meters   Meters  days hr:min      Meters
  ---------------------------------------------------------------------------------
  WS02001211           JUNCTION     0.61     0.77     5.61     0  04:08        0.77
  WS02001212           JUNCTION     0.34     0.47     5.54     0  04:07        0.47
  WS02001213           JUNCTION     0.55     0.70     5.47     0  04:06        0.70
  WS02003069           JUNCTION     0.32     0.48     5.06     0  04:05        0.48
  WS02003072           JUNCTION     0.39     0.55     4.92     0  04:06        0.55
  WS02003073           JUNCTION     0.23     0.33     4.39     0  04:06        0.33
  WS02003060           JUNCTION     0.29     0.43     5.36     0  04:04        0.43
  WS02003066           JUNCTION     0.15     0.24     5.80     0  02:56        0.24
  WS02003059           JUNCTION     0.60     0.75     5.44     0  04:06        0.75
  WS02003067           JUNCTION     0.41     0.60     5.92     0  02:56        0.60
  WS02004401           JUNCTION     0.47     0.69     6.69     0  02:53        0.69
  WS02004402           JUNCTION     0.50     0.72     6.68     0  02:53        0.72
  WS02004403           JUNCTION     0.53     0.74     6.67     0  02:53        0.74
  WS02004404           JUNCTION     0.61     0.82     6.67     0  02:54        0.82
  WS02004406           JUNCTION     0.62     0.83     6.66     0  02:54        0.83
  WS02004409           JUNCTION     0.27     0.50     6.27     0  02:55        0.50
  WS02004410           JUNCTION     0.29     0.52     6.24     0  02:55        0.52
  WS02004411           JUNCTION     0.32     0.54     6.22     0  02:55        0.54
  WS02004412           JUNCTION     0.35     0.56     6.20     0  02:56        0.56
  WS02004413           JUNCTION     0.51     0.73     6.20     0  02:56        0.73
  WS02004405           JUNCTION     0.60     0.82     6.67     0  02:54        0.82
  WS02006109           JUNCTION     0.51     0.76     7.38     0  02:50        0.76
  WS02006110           JUNCTION     0.53     0.76     7.35     0  02:51        0.76
  WS02006111           JUNCTION     0.13     0.23     6.93     0  02:51        0.23
  WS02006112           JUNCTION     0.61     0.86     6.74     0  02:52        0.85
  WS02006113           JUNCTION     0.19     0.35     7.24     0  02:51        0.35
  WS02006115           JUNCTION     0.35     0.57     6.71     0  02:52        0.57
  WS02006116           JUNCTION     0.43     0.66     6.70     0  02:53        0.66
  WS02006230           JUNCTION     0.41     0.71     7.45     0  02:51        0.71
  WS02006231           JUNCTION     0.22     0.45     7.57     0  02:51        0.45
  WS02006232           JUNCTION     0.33     0.59     7.63     0  02:50        0.59
  WS02006234           JUNCTION     0.22     0.50     7.65     0  02:50        0.50
  WS02006235           JUNCTION     0.25     0.53     7.69     0  02:50        0.53
  WS02006238           JUNCTION     0.27     0.55     7.69     0  02:50        0.55
  WS02006240           JUNCTION     0.16     0.40     7.69     0  02:51        0.40
  WS02006242           JUNCTION     0.19     0.42     7.69     0  02:51        0.42
  WS02006243           JUNCTION     0.09     0.27     7.69     0  02:51        0.27
  WS02006245           JUNCTION     0.07     0.21     7.69     0  02:52        0.21
  WS02006247           JUNCTION     0.07     0.20     7.70     0  02:51        0.20
  WS02006248           JUNCTION     0.04     0.11     7.70     0  02:52        0.11
  WS02006249           JUNCTION     0.06     0.14     7.74     0  02:20        0.14
  WS02006239           JUNCTION     0.21     0.48     7.69     0  02:51        0.48
  WS02006251           JUNCTION     0.04     0.12     7.79     0  02:19        0.12
  WS02006252           JUNCTION     0.00     0.00     8.24     0  00:00        0.00
  WS02006253           JUNCTION     0.08     0.17     7.81     0  02:18        0.17
  WS02006256           JUNCTION     0.86     2.35     9.28     0  00:00        2.35
  WS02004138           JUNCTION     0.13     0.20     7.45     0  00:00        0.19
  WS02004139           JUNCTION     0.55     0.72     5.63     0  04:08        0.72
  WS02004407           JUNCTION     0.12     0.23     6.54     0  02:54        0.23
  WS02006228           JUNCTION     0.48     0.75     7.40     0  02:50        0.75
  WS02006229           JUNCTION     0.45     0.72     7.42     0  02:50        0.72
  WS02006280           JUNCTION     0.04     0.11     8.38     0  02:18        0.11
  WS02006284           JUNCTION     0.33     0.43     8.83     0  02:18        0.43
  WS02006287           JUNCTION     0.06     0.15     9.11     0  02:18        0.15
  WSF200               JUNCTION     0.11     0.23     5.46     0  02:55        0.23
  HS02004901           JUNCTION     0.09     0.18    10.00     0  02:16        0.18
  HS02004881           JUNCTION     0.00     0.02     9.04     0  02:17        0.02
  HS02004876           JUNCTION     0.03     0.08     9.11     0  02:17        0.08
  HS02004870           JUNCTION     0.01     0.03     9.31     0  02:17        0.03
  HS02004862           JUNCTION     0.01     0.03     9.41     0  02:19        0.03
  HS02004856           JUNCTION     0.06     0.09     9.52     0  02:18        0.09
  HS02004852           JUNCTION     0.00     0.02     9.53     0  02:19        0.02
  HS02004848           JUNCTION     0.00     0.02     9.62     0  02:15        0.02
  HS02004842           JUNCTION     0.32     0.35     9.62     0  02:15        0.35
  HS02004837           JUNCTION     0.02     0.04     9.62     0  02:15        0.04
  HS02004830           JUNCTION     0.03     0.05     9.52     0  02:16        0.05
  HS02004824           JUNCTION     0.02     0.03     9.43     0  02:18        0.03
  HS02004817           JUNCTION     0.40     0.48     9.33     0  02:18        0.48
  HS02004807           JUNCTION     0.10     0.16     9.33     0  02:18        0.16
  HS02004802           JUNCTION     0.13     0.20     9.33     0  02:18        0.20
  HS02004799           JUNCTION     0.09     0.19     9.40     0  02:16        0.19
  HS02004792           JUNCTION     0.02     0.06     9.59     0  02:15        0.06
  HS02004788           JUNCTION     0.02     0.05     9.95     0  02:17        0.05
  HS02004785           JUNCTION     0.03     0.09    10.00     0  02:17        0.09
  HS02004777           JUNCTION     0.11     0.20    10.00     0  02:16        0.20
  HS02004770           JUNCTION     0.09     0.17    10.00     0  02:16        0.17
  HS02004480           JUNCTION     0.05     0.14     9.38     0  02:16        0.14
  HS02004479           JUNCTION     0.09     0.18     9.38     0  02:17        0.18
  HS02004478           JUNCTION     0.04     0.09     9.32     0  02:18        0.09
  YS02001745           JUNCTION     0.09     0.28     7.80     0  07:49        0.28
  YS02001748           JUNCTION     0.30     0.72     7.79     0  07:49        0.72
  YS02001751           JUNCTION     0.44     0.92     7.79     0  07:49        0.91
  YS02001754           JUNCTION     0.64     1.19     7.79     0  07:49        1.19
  YS02001762           JUNCTION     0.81     1.39     7.79     0  07:49        1.39
  YS02001765           JUNCTION     0.77     1.34     7.79     0  07:49        1.34
  YS02001767           JUNCTION     0.74     1.30     7.79     0  07:49        1.30
  YS02001770           JUNCTION     0.74     1.30     7.79     0  07:49        1.30
  YS02001774           JUNCTION     0.79     1.37     7.79     0  07:49        1.37
  YS02001779           JUNCTION     0.58     1.11     7.79     0  07:49        1.11
  YS02001882           JUNCTION     0.19     0.31     7.02     0  02:51        0.31
  YS02001884           JUNCTION     0.27     0.41     7.02     0  02:52        0.41
  YS02001759           JUNCTION     0.84     1.43     7.79     0  07:49        1.43
  YS02001887           JUNCTION     0.35     0.49     7.02     0  02:52        0.49
  YS02001890           JUNCTION     0.38     0.52     7.02     0  02:51        0.52
  YS02001898           JUNCTION     0.16     0.27     7.01     0  02:53        0.27
  YS02001901           JUNCTION     0.26     0.40     7.01     0  02:54        0.40
  YS02001904           JUNCTION     0.25     0.38     7.01     0  02:53        0.38
  YS02001907           JUNCTION     0.56     0.72     7.01     0  02:53        0.72
  YS02001910           JUNCTION     0.35     0.50     7.01     0  02:53        0.50
  YS02001915           JUNCTION     0.18     0.29     7.01     0  02:52        0.29
  YS02001918           JUNCTION     0.05     0.07     7.13     0  03:04        0.07
  YS02001619           JUNCTION     0.41     0.87     7.79     0  07:49        0.86
  YS02001629           JUNCTION     0.69     1.25     7.79     0  07:49        1.25
  YS02001641           JUNCTION     0.78     1.36     7.79     0  07:49        1.36
  YS02001644           JUNCTION     0.79     1.36     7.79     0  07:49        1.36
  YS02001652           JUNCTION     0.65     1.20     7.79     0  07:50        1.20
  YS02001655           JUNCTION     0.46     0.94     7.79     0  07:50        0.94
  YS02001920           JUNCTION     0.14     0.16     7.17     0  03:03        0.16
  YS02001923           JUNCTION     0.04     0.06     7.32     0  03:02        0.06
  YS02001926           JUNCTION     0.10     0.13     7.57     0  03:02        0.13
  YS02001929           JUNCTION     0.04     0.06     7.75     0  03:01        0.06
  YS02001658           JUNCTION     0.26     0.65     7.79     0  07:50        0.65
  YS02001661           JUNCTION     0.16     0.39     7.79     0  07:49        0.39
  YS02001664           JUNCTION     0.05     0.08     8.00     0  02:43        0.08
  YS02001622           JUNCTION     0.42     0.89     7.79     0  07:49        0.89
  YS02001633           JUNCTION     0.77     1.34     7.79     0  07:50        1.34
  YS02001649           JUNCTION     0.82     1.40     7.79     0  07:50        1.40
  YS02001757           JUNCTION     0.94     1.53     7.79     0  07:50        1.53
  YS02001895           JUNCTION     0.16     0.27     7.02     0  02:51        0.27
  YS02001625           JUNCTION     0.66     1.19     7.79     0  07:50        1.19
  YS02163301           JUNCTION     0.71     1.28     7.80     0  07:50        1.28
  YS02163601           JUNCTION     0.82     1.40     7.79     0  07:49        1.40
  YS02164001           JUNCTION     0.76     1.34     7.79     0  07:49        1.33
  YS02001647           JUNCTION     0.64     1.18     7.79     0  07:49        1.18
  YSB1154              JUNCTION     0.21     0.33     9.38     0  02:16        0.33
  YSB6556              JUNCTION     0.11     0.22     9.38     0  02:17        0.22
  YSB1174              JUNCTION     0.17     0.28     9.38     0  02:16        0.28
  YSB1171              JUNCTION     0.36     0.48     9.38     0  02:17        0.48
  YS02006553           JUNCTION     0.56     0.72     7.01     0  02:53        0.72
  YS02006561           JUNCTION     0.09     0.15     6.81     0  02:54        0.15
  YS02006556           JUNCTION     0.54     0.69     7.00     0  02:53        0.69
  YS02006558           JUNCTION     0.58     0.74     7.00     0  02:53        0.74
  YS02001783           JUNCTION     0.15     0.26     6.40     0  02:54        0.26
  YS02001784           JUNCTION     0.18     0.29     6.36     0  02:54        0.29
  YS02001786           JUNCTION     0.15     0.25     6.28     0  02:55        0.25
  YS02001788           JUNCTION     0.11     0.18     6.16     0  02:55        0.18
  YS02001790           JUNCTION     0.13     0.22     5.86     0  02:55        0.22
  YS02001791           JUNCTION     0.09     0.15     5.62     0  02:50        0.15
  YS02001793           JUNCTION     0.05     0.10     4.93     0  02:51        0.10
  WSC                  OUTFALL      0.23     0.33     1.00     0  04:07        0.33
  JK-storage           STORAGE      0.73     3.41     4.21     0  03:34        3.41
  CC-storage           STORAGE      0.33     0.79     7.79     0  07:50        0.79
  XR-storage           STORAGE      1.88     6.10     4.10     0  07:50        6.10
  
  
  *******************
  Node Inflow Summary
  *******************
  
  -------------------------------------------------------------------------------------------------
                                  Maximum  Maximum                  Lateral       Total        Flow
                                  Lateral    Total  Time of Max      Inflow      Inflow     Balance
                                   Inflow   Inflow   Occurrence      Volume      Volume       Error
  Node                 Type           LPS      LPS  days hr:min    10^6 ltr    10^6 ltr     Percent
  -------------------------------------------------------------------------------------------------
  WS02001211           JUNCTION      7.35   388.10     0  04:30       0.207        6.76       0.099
  WS02001212           JUNCTION      0.00   388.63     0  04:30           0        6.75       0.110
  WS02001213           JUNCTION      0.00   389.21     0  04:30           0        6.74       0.127
  WS02003069           JUNCTION      0.32   670.88     0  04:05     0.00902        9.83       0.081
  WS02003072           JUNCTION      0.00   670.86     0  04:05           0        9.82       0.135
  WS02003073           JUNCTION      1.82   672.68     0  04:06      0.0514        9.86       0.131
  WS02003060           JUNCTION     16.53   670.54     0  04:04       0.466        9.84       0.080
  WS02003066           JUNCTION      0.00   320.02     0  02:56           0        2.65       0.080
  WS02003059           JUNCTION      0.00   390.23     0  04:30           0        6.74       0.219
  WS02003067           JUNCTION      0.00   319.97     0  02:56           0        2.65       0.202
  WS02004401           JUNCTION      0.00   330.62     0  02:53           0        2.78       0.433
  WS02004402           JUNCTION      0.00   329.66     0  02:53           0        2.77       0.433
  WS02004403           JUNCTION      0.00   328.97     0  02:53           0        2.76       0.418
  WS02004404           JUNCTION      0.16   328.61     0  02:53     0.00457        2.75       0.341
  WS02004406           JUNCTION      0.00   328.04     0  02:54           0        2.73       0.851
  WS02004409           JUNCTION      0.00   327.57     0  02:54           0         2.7       0.195
  WS02004410           JUNCTION      0.00   325.65     0  02:55           0         2.7       0.271
  WS02004411           JUNCTION      0.00   323.76     0  02:55           0        2.69       0.316
  WS02004412           JUNCTION      0.00   322.28     0  02:55           0        2.68       0.390
  WS02004413           JUNCTION      0.00   320.93     0  02:56           0        2.67       0.653
  WS02004405           JUNCTION      0.04   328.37     0  02:53     0.00107        2.74       0.509
  WS02006109           JUNCTION      1.23   333.47     0  02:50      0.0347        2.82       0.309
  WS02006110           JUNCTION      0.00   333.45     0  02:50           0        2.81       0.301
  WS02006111           JUNCTION      0.00   336.59     0  02:50           0         2.8       0.046
  WS02006112           JUNCTION      4.89   334.85     0  02:51      0.0151        2.82       0.715
  WS02006113           JUNCTION      0.00   333.40     0  02:50           0         2.8       0.081
  WS02006115           JUNCTION      0.00   333.56     0  02:52           0         2.8       0.314
  WS02006116           JUNCTION      0.00   331.90     0  02:52           0        2.79       0.261
  WS02006230           JUNCTION     10.28   266.98     0  02:51        0.29        2.21       0.302
  WS02006231           JUNCTION      0.00   257.00     0  02:51           0        1.91      -0.041
  WS02006232           JUNCTION      0.00   257.33     0  02:50           0        1.92       0.345
  WS02006234           JUNCTION      0.00   257.62     0  02:50           0        1.92      -0.265
  WS02006235           JUNCTION      0.00   288.92     0  00:00           0        2.11       0.365
  WS02006238           JUNCTION      0.00   167.21     0  00:00           0       0.429       0.049
  WS02006240           JUNCTION      0.00    80.54     0  00:02           0       0.276       0.279
  WS02006242           JUNCTION      0.00    65.09     0  00:03           0       0.198       0.460
  WS02006243           JUNCTION      0.00    32.19     0  02:53           0       0.138       0.171
  WS02006245           JUNCTION      0.00    24.72     0  02:54           0       0.111       2.213
  WS02006247           JUNCTION      0.00    20.28     0  02:20           0      0.0959       0.219
  WS02006248           JUNCTION      0.00    20.28     0  02:20           0      0.0888       0.194
  WS02006249           JUNCTION      0.00    20.36     0  02:19           0      0.0867       0.283
  WS02006239           JUNCTION      0.00   121.49     0  00:01           0       0.356      -0.029
  WS02006251           JUNCTION      0.08    20.42     0  02:18     0.00217       0.086       0.082
  WS02006252           JUNCTION      0.00     0.00     0  00:00           0           0       0.000 ltr
  WS02006253           JUNCTION      0.74    20.37     0  02:17     0.00196       0.084       0.185
  WS02006256           JUNCTION      0.00   641.07     0  05:05           0        2.05      -0.030
  WS02004138           JUNCTION      0.00   380.00     0  00:00           0        6.56       0.030
  WS02004139           JUNCTION      0.32   395.85     0  00:00     0.00905        6.56       0.231
  WS02004407           JUNCTION      0.00   327.72     0  02:54           0         2.7       0.084
  WS02006228           JUNCTION      0.00   332.25     0  02:50           0        2.79       0.270
  WS02006229           JUNCTION      0.00   332.25     0  02:50           0         2.8       0.321
  WS02006280           JUNCTION      0.00   111.91     0  02:18           0       0.605       0.013
  WS02006284           JUNCTION      0.10   111.90     0  02:18      0.0027       0.606       0.186
  WS02006287           JUNCTION      0.00   111.82     0  02:18           0       0.604       0.114
  WSF200               JUNCTION      0.00   319.99     0  02:56           0        2.65       0.059
  HS02004901           JUNCTION      6.05     6.05     0  02:08      0.0182      0.0184      10.562
  HS02004881           JUNCTION      2.44    19.83     0  02:17     0.00795      0.0821       0.072
  HS02004876           JUNCTION      3.83    17.64     0  02:16      0.0152      0.0746       0.692
  HS02004870           JUNCTION      4.29    13.94     0  02:16       0.015      0.0596       0.177
  HS02004862           JUNCTION      3.54    10.03     0  02:17      0.0205      0.0447       0.366
  HS02004856           JUNCTION      3.18     6.54     0  02:16      0.0113      0.0256       5.947
  HS02004852           JUNCTION      0.00     3.63     0  02:17           0      0.0144       0.322
  HS02004848           JUNCTION      6.73     6.73     0  02:18      0.0353      0.0353       0.119
  HS02004842           JUNCTION      0.00     4.48     0  00:03           0       0.034      61.972
  HS02004837           JUNCTION     13.18    16.16     0  02:14       0.205       0.226       0.362
  HS02004830           JUNCTION      0.15    16.30     0  02:15     0.00423       0.216       0.572
  HS02004824           JUNCTION      7.43    23.64     0  02:18      0.0465       0.262       0.206
  HS02004817           JUNCTION      0.60    24.24     0  02:18      0.0169       0.278       6.371
  HS02004807           JUNCTION      8.09    31.50     0  02:17      0.0276       0.289       1.483
  HS02004802           JUNCTION      0.00    31.53     0  02:19           0       0.285       1.443
  HS02004799           JUNCTION      6.21    68.52     0  02:15      0.0223       0.291       0.786
  HS02004792           JUNCTION     28.00    62.57     0  02:15       0.101       0.269       0.156
  HS02004788           JUNCTION     10.07    36.51     0  02:16      0.0781       0.169       0.232
  HS02004785           JUNCTION      0.15    26.97     0  02:15     0.00423      0.0934       0.511
  HS02004777           JUNCTION      0.03    27.39     0  02:13    0.000846      0.0936       5.842
  HS02004770           JUNCTION     23.62    28.61     0  02:10      0.0778      0.0944       3.389
  HS02004480           JUNCTION      0.00    80.55     0  02:16           0       0.335       0.198
  HS02004479           JUNCTION      0.00    12.35     0  02:18           0      0.0563       1.308
  HS02004478           JUNCTION      0.00   111.82     0  02:17           0       0.605       0.110
  YS02001745           JUNCTION     32.88    32.88     0  03:00       0.416       0.418       0.835
  YS02001748           JUNCTION      0.04    46.40     0  04:22     0.00127       0.426       3.903
  YS02001751           JUNCTION      0.01    66.97     0  04:24     0.00031       0.409       5.737
  YS02001754           JUNCTION      0.26    74.23     0  03:23     0.00733       0.391       6.861
  YS02001762           JUNCTION      0.00    50.25     0  02:31           0       0.422       5.549
  YS02001765           JUNCTION      0.00    54.30     0  02:31           0       0.425       6.211
  YS02001767           JUNCTION      0.54    57.11     0  02:32      0.0151       0.447       8.812
  YS02001770           JUNCTION     43.20    54.63     0  02:32       0.502       0.522       6.763
  YS02001774           JUNCTION      0.00    29.55     0  02:28           0      0.0801      48.684
  YS02001779           JUNCTION      0.01    22.92     0  04:42    0.000141      0.0342      84.189
  YS02001882           JUNCTION      0.00     2.11     0  02:05           0     0.00314      79.390
  YS02001884           JUNCTION      0.00     6.55     0  02:04           0      0.0128      49.523
  YS02001759           JUNCTION     42.55    90.80     0  02:31       0.472       0.859       2.892
  YS02001887           JUNCTION     57.38    57.38     0  02:41       0.581       0.587       1.119
  YS02001890           JUNCTION      0.00    57.04     0  02:44           0       0.569       1.272
  YS02001898           JUNCTION      0.00    56.83     0  02:46           0       0.559       0.301
  YS02001901           JUNCTION      0.00    56.86     0  02:48           0       0.559       0.879
  YS02001904           JUNCTION      0.00    56.61     0  02:49           0       0.558       0.819
  YS02001907           JUNCTION      0.00   102.10     0  02:55           0        1.19       1.801
  YS02001910           JUNCTION      0.00    46.13     0  03:00           0       0.639       1.484
  YS02001915           JUNCTION     29.74    45.87     0  03:01       0.361       0.642       0.592
  YS02001918           JUNCTION      0.00    16.28     0  03:03           0       0.282       0.277
  YS02001619           JUNCTION     28.82    28.82     0  02:57       0.355       0.355       3.249
  YS02001629           JUNCTION      0.00    39.45     0  04:39           0       0.279      10.595
  YS02001641           JUNCTION      0.00    58.41     0  02:37           0       0.582       3.928
  YS02001644           JUNCTION     31.20    85.80     0  02:55       0.399       0.952       2.900
  YS02001652           JUNCTION      0.00    46.66     0  03:05           0       0.382       6.692
  YS02001655           JUNCTION      0.15    62.40     0  04:20     0.00434       0.409       6.081
  YS02001920           JUNCTION      2.87    16.29     0  03:02      0.0809       0.284       0.583
  YS02001923           JUNCTION      0.04    13.42     0  03:02     0.00106       0.203       0.104
  YS02001926           JUNCTION      0.05    13.41     0  03:01     0.00147       0.203       0.753
  YS02001929           JUNCTION     13.37    13.37     0  03:01       0.202       0.202       0.098
  YS02001658           JUNCTION      0.00    45.05     0  04:21           0       0.421       3.956
  YS02001661           JUNCTION      0.00    40.19     0  02:43           0       0.418       1.763
  YS02001664           JUNCTION     40.19    40.19     0  02:43       0.418       0.418       0.030
  YS02001622           JUNCTION      0.00    30.95     0  04:41           0       0.343       9.427
  YS02001633           JUNCTION     31.76    64.93     0  02:37       0.412       0.642       5.394
  YS02001649           JUNCTION      0.00   130.53     0  02:46           0        1.24       3.206
  YS02001757           JUNCTION      0.00   256.32     0  03:06           0        2.36       4.098
  YS02001895           JUNCTION      0.00    56.86     0  02:47           0       0.562       0.557
  YS02001625           JUNCTION      0.00    41.54     0  04:40           0       0.317      13.997
  YS02163301           JUNCTION      0.00    38.08     0  02:37           0       0.256      10.797
  YS02163601           JUNCTION      0.11    67.96     0  02:36      0.0031       0.608       5.359
  YS02164001           JUNCTION      0.00    63.37     0  02:37           0       0.586       3.856
  YS02001647           JUNCTION      0.00    85.86     0  02:45           0       0.914       3.292
  YSB1154              JUNCTION      6.82     6.82     0  02:13       0.027      0.0284       5.357
  YSB6556              JUNCTION      0.00     6.67     0  02:15           0      0.0294       4.406
  YSB1174              JUNCTION      6.88     6.88     0  02:08      0.0198      0.0207       6.612
  YSB1171              JUNCTION      0.00    12.37     0  02:15           0      0.0557      12.801
  YS02006553           JUNCTION      0.00   102.13     0  02:56           0        1.18       1.175
  YS02006561           JUNCTION      0.00   149.89     0  02:53           0        1.66       0.030
  YS02006556           JUNCTION      0.00   102.17     0  02:56           0        1.18       0.840
  YS02006558           JUNCTION     48.26   149.90     0  02:53       0.529        1.68       0.254
  YS02001783           JUNCTION      0.00   149.89     0  02:54           0        1.66       0.070
  YS02001784           JUNCTION      1.06   150.94     0  02:54      0.0299        1.69       0.118
  YS02001786           JUNCTION      0.06   150.98     0  02:54     0.00159        1.69       0.114
  YS02001788           JUNCTION      0.07   151.04     0  02:55       0.002        1.69       0.065
  YS02001790           JUNCTION      0.15   151.20     0  02:55     0.00437        1.69       0.082
  YS02001791           JUNCTION      0.00   151.19     0  02:55           0        1.69       0.041
  YS02001793           JUNCTION      0.00   153.56     0  02:50           0        1.69       0.021
  WSC                  OUTFALL       0.00   672.66     0  04:07           0        9.85       0.000
  JK-storage           STORAGE       0.00   153.28     0  02:51           0        1.84     -12.240
  CC-storage           STORAGE       0.00   219.18     0  02:57           0        2.26       2.156
  XR-storage           STORAGE     257.37   257.37     0  02:50        6.36        6.96      -4.441
  
  
  **********************
  Node Surcharge Summary
  **********************
  
  Surcharging occurs when water rises above the top of the highest conduit.
  ---------------------------------------------------------------------
                                               Max. Height   Min. Depth
                                   Hours       Above Crown    Below Rim
  Node                 Type      Surcharged         Meters       Meters
  ---------------------------------------------------------------------
  WS02006256           JUNCTION        5.48          2.050        0.000
  YS02001754           JUNCTION        1.59          0.136        1.014
  YS02001762           JUNCTION        3.57          0.394        0.756
  YS02001765           JUNCTION        3.24          0.344        0.756
  YS02001767           JUNCTION        3.00          0.305        0.725
  YS02001770           JUNCTION        2.73          0.269        0.651
  YS02001774           JUNCTION        3.43          0.373        0.677
  YS02001779           JUNCTION        1.30          0.109        0.571
  YS02001759           JUNCTION        3.78          0.430        0.780
  YS02001641           JUNCTION        3.33          0.358        0.742
  YS02001644           JUNCTION        3.36          0.363        0.557
  YS02001652           JUNCTION        1.89          0.168        0.962
  YS02001633           JUNCTION        3.10          0.321        0.739
  YS02001649           JUNCTION        3.63          0.404        0.646
  YS02001757           JUNCTION        4.36          0.533        0.677
  YS02001625           JUNCTION        2.09          0.191        0.589
  YS02163301           JUNCTION        2.79          0.279        0.751
  YS02163601           JUNCTION        3.59          0.396        0.684
  YS02164001           JUNCTION        3.20          0.337        0.763
  YS02001647           JUNCTION        2.04          0.184        0.716
  
  
  *********************
  Node Flooding Summary
  *********************
  
  Flooding refers to all water that overflows a node, whether it ponds or not.
  --------------------------------------------------------------------------
                                                             Total   Maximum
                                 Maximum   Time of Max       Flood    Ponded
                        Hours       Rate    Occurrence      Volume     Depth
  Node                 Flooded       LPS   days hr:min    10^6 ltr    Meters
  --------------------------------------------------------------------------
  WS02006256              0.87    386.75      0  05:05       0.211     0.000
  
  
  **********************
  Storage Volume Summary
  **********************
  
  --------------------------------------------------------------------------------------------------
                         Average     Avg  Evap Exfil       Maximum     Max    Time of Max    Maximum
                          Volume    Pcnt  Pcnt  Pcnt        Volume    Pcnt     Occurrence    Outflow
  Storage Unit           1000 m3    Full  Loss  Loss       1000 m3    Full    days hr:min        LPS
  --------------------------------------------------------------------------------------------------
  JK-storage               0.037      13     0     0         0.172      59       0  03:34     641.07
  CC-storage               0.916       6     0     0         2.211      14       0  07:50       0.00
  XR-storage               0.225      24     0     0         0.732      79       0  07:50     380.00
  
  
  ***********************
  Outfall Loading Summary
  ***********************
  
  ---------------------------------------------------------------------------------------------------------------------------------
                         Flow       Avg       Max       Total         Total         Total         Total         Total         Total
                         Freq      Flow      Flow      Volume           COD            SS            TN            TP         NH4-N
  Outfall Node           Pcnt       LPS       LPS    10^6 ltr            kg            kg            kg            kg            kg
  ---------------------------------------------------------------------------------------------------------------------------------
  WSC                   99.95    352.86    672.66       9.848      1444.159      2312.181       132.867        16.505        82.773
  ---------------------------------------------------------------------------------------------------------------------------------
  System                99.95    352.86    672.66       9.848      1444.159      2312.181       132.867        16.505        82.773
  
  
  ********************
  Link Flow Summary
  ********************
  
  -----------------------------------------------------------------------------
                                 Maximum  Time of Max   Maximum    Max/    Max/
                                  |Flow|   Occurrence   |Veloc|    Full    Full
  Link                 Type          LPS  days hr:min     m/sec    Flow   Depth
  -----------------------------------------------------------------------------
  WS02003066WSF200     CONDUIT    319.99     0  02:56      2.43    0.05    0.17
  WS02006287WS02006284 CONDUIT    111.81     0  02:18      1.31    0.05    0.17
  WS02006284WS02006280 CONDUIT    111.91     0  02:18      1.56    0.05    0.15
  WS02006280WS02006229 CONDUIT    111.91     0  02:18      2.49    0.02    0.11
  WS02006229WS02006228 CONDUIT    332.25     0  02:50      1.02    1.10    0.90
  WS02006256WS02006235 CONDUIT    288.92     0  00:00      4.23    3.06    1.00
  WS02006253WS02006251 CONDUIT     20.35     0  02:18      0.38    0.06    0.20
  WS02006252WS02006251 CONDUIT      0.00     0  00:00      0.00    0.00    0.00
  WS02006251WS02006249 CONDUIT     20.36     0  02:19      0.42    0.06    0.18
  WS02006249WS02006248 CONDUIT     20.28     0  02:20      0.50    0.11    0.16
  WS02006248WS02006247 CONDUIT     20.28     0  02:20      0.50    0.04    0.21
  WS02006247WS02006245 CONDUIT     24.72     0  02:54      0.44    0.20    0.28
  WS02006245WS02006243 CONDUIT     32.19     0  02:53      0.57    0.10    0.34
  WS02006243WS02006242 CONDUIT     51.61     0  06:49      0.51    0.11    0.48
  WS02006242WS02006240 CONDUIT     69.12     0  06:49      0.91    0.27    0.58
  WS02006240WS02006239 CONDUIT     84.45     0  06:48      0.76    0.27    0.60
  WS02006239WS02006238 CONDUIT    121.49     0  00:01      0.87    0.39    0.72
  WS02006238WS02006235 CONDUIT    167.21     0  00:00      1.45    0.37    0.77
  WS02006235WS02006234 CONDUIT    257.62     0  02:50      1.09    2.72    0.71
  WS02006234WS02006232 CONDUIT    257.33     0  02:50      1.39    0.52    0.78
  WS02006232WS02006231 CONDUIT    257.00     0  02:51      0.85    0.54    0.74
  WS02006231WS02006230 CONDUIT    256.70     0  02:51      1.19    3.89    0.55
  WS02006230WS02006229 CONDUIT    267.09     0  02:51      1.03    5.94    0.98
  WS02006228WS02006109 CONDUIT    332.24     0  02:50      0.88    1.45    0.93
  WS02006116WS02004401 CONDUIT    330.62     0  02:53      1.00    0.46    0.67
  WS02006115WS02006116 CONDUIT    331.90     0  02:52      1.02    0.43    0.58
  WS02006113WS02006111 CONDUIT    336.59     0  02:50      2.07    0.40    0.36
  WS02006112WS02006115 CONDUIT    333.56     0  02:52      0.57    0.20    0.71
  WS02006111WS02006112 CONDUIT    333.28     0  02:51      1.60    0.16    0.63
  WS02006110WS02006113 CONDUIT    333.40     0  02:50      0.90    0.30    0.69
  WS02006109WS02006110 CONDUIT    333.45     0  02:50      0.71    0.64    0.88
  WS02004411WS02004412 CONDUIT    322.28     0  02:55      0.73    0.46    0.55
  WS02004401WS02004402 CONDUIT    329.66     0  02:53      1.00    0.40    0.70
  WS02004413WS02003067 CONDUIT    319.97     0  02:56      0.84    0.14    0.49
  WS02004412WS02004413 CONDUIT    320.93     0  02:56      0.64    0.21    0.64
  WS02004410WS02004411 CONDUIT    323.76     0  02:55      0.77    0.44    0.53
  WS02004409WS02004410 CONDUIT    325.65     0  02:55      0.81    0.42    0.51
  WS02004407WS02004409 CONDUIT    327.57     0  02:54      1.28    0.12    0.37
  WS02004406WS02004407 CONDUIT    327.72     0  02:54      0.78    0.15    0.53
  WS02004405WS02004406 CONDUIT    328.04     0  02:54      1.10    0.65    0.82
  WS02004404WS02004405 CONDUIT    328.33     0  02:53      1.15    3.22    0.82
  WS02004403WS02004404 CONDUIT    328.45     0  02:53      0.98    0.24    0.78
  WS02004402WS02004403 CONDUIT    328.97     0  02:53      1.02    0.47    0.73
  WS02004139WS02001211 CONDUIT    380.75     0  04:30      0.90    0.48    0.58
  WS02004138WS02004139 CONDUIT    395.52     0  00:00      3.64    0.08    0.43
  WS02003067WS02003066 CONDUIT    320.02     0  02:56      0.90    0.10    0.35
  WS02001213WS02003059 CONDUIT    390.23     0  04:30      0.89    0.64    0.72
  WS02001212WS02001213 CONDUIT    389.21     0  04:30      1.32    0.60    0.43
  WS02001211WS02001212 CONDUIT    388.63     0  04:30      0.78    0.30    0.62
  WS02003072WS02003073 CONDUIT    670.86     0  04:06      1.53    1.45    0.41
  WS02003069WS02003072 CONDUIT    670.86     0  04:05      1.46    0.32    0.43
  WS02003060WS02003069 CONDUIT    670.56     0  04:05      1.72    0.26    0.38
  WS02003059WS02003060 CONDUIT    391.70     0  04:29      0.95    0.26    0.59
  HS02004901HS02004770 CONDUIT      5.30     0  02:15      0.03    0.02    0.25
  HS02004876HS02004881 CONDUIT     17.67     0  02:17      0.36    0.19    0.07
  HS02004870HS02004876 CONDUIT     13.92     0  02:17      0.25    0.01    0.08
  HS02004842HS02004848 CONDUIT      3.29     0  02:26      0.02    0.00    0.26
  HS02004837HS02004842 CONDUIT      4.48     0  00:03      0.42    0.00    0.27
  HS02004830HS02004837 CONDUIT     16.15     0  02:15      0.37    0.02    0.06
  HS02004824HS02004830 CONDUIT     16.30     0  02:16      0.42    0.02    0.06
  HS02004817HS02004824 CONDUIT     23.64     0  02:18      0.17    0.01    0.36
  HS02004770HS02004777 CONDUIT     27.36     0  02:13      0.15    0.05    0.27
  HS02004799HS02004480 CONDUIT     68.36     0  02:16      0.42    0.09    0.23
  HS02004792HS02004799 CONDUIT     62.53     0  02:15      0.49    0.04    0.18
  HS02004788HS02004792 CONDUIT     36.47     0  02:17      0.66    0.02    0.08
  HS02004785HS02004788 CONDUIT     26.84     0  02:17      0.38    0.20    0.10
  HS02004777HS02004785 CONDUIT     26.82     0  02:15      0.18    0.03    0.21
  HS02004480HS02004478 CONDUIT     80.52     0  02:17      0.73    0.34    0.16
  HS02004479HS02004480 CONDUIT     12.46     0  02:19      0.15    0.01    0.23
  HS02004862HS02004870 CONDUIT      9.99     0  02:18      0.35    0.01    0.04
  HS02004848HS02004852 CONDUIT      3.63     0  02:17      0.23    0.00    0.02
  HS02004856HS02004862 CONDUIT      6.52     0  02:18      0.25    0.01    0.04
  HS02004852HS02004856 CONDUIT      3.60     0  02:19      0.07    0.00    0.08
  HS02004802HS02004478 CONDUIT     31.66     0  02:20      0.22    0.03    0.20
  HS02004478WS02006287 CONDUIT    111.82     0  02:18      1.00    0.03    0.12
  HS02004817HS02004807 CONDUIT     24.42     0  02:21      0.08    0.01    0.46
  HS02004807HS02004802 CONDUIT     31.53     0  02:19      0.18    0.06    0.25
  YS02001759YS02001757 CONDUIT     89.47     0  02:58      0.14    0.06    1.00
  YS02001762YS02001759 CONDUIT     49.76     0  02:31      0.17    0.06    1.00
  YS02001765YS02001762 CONDUIT     50.25     0  02:31      0.23    0.05    1.00
  YS02001770YS02001767 CONDUIT     56.57     0  02:32      0.30    0.22    1.00
  YS02001774YS02001770 CONDUIT     29.55     0  02:28      0.12    0.02    1.00
  YS02001779YS02001774 CONDUIT     22.91     0  04:42      0.06    0.01    1.00
  YS02001649YS02001757 CONDUIT    130.16     0  02:54      0.18    0.08    1.00
  YS02001767YS02001765 CONDUIT     54.30     0  02:31      0.26    0.07    1.00
  YS02006561YS02001783 CONDUIT    149.89     0  02:54      1.47    0.08    0.26
  YS02001783YS02001784 CONDUIT    149.88     0  02:54      0.97    0.21    0.35
  YS02001784YS02001785 CONDUIT    150.92     0  02:54      1.00    0.35    0.34
  YS02001788YS02001790 CONDUIT    151.04     0  02:55      1.54    0.11    0.25
  YS02001790YS02001791 CONDUIT    151.19     0  02:55      1.76    0.16    0.23
  YS02001791YS02001793 CONDUIT    153.56     0  02:50      3.50    0.07    0.15
  YS02001910YS02001907 CONDUIT     46.20     0  03:02      0.49    0.03    0.60
  YS02001786YS02001788 CONDUIT    150.97     0  02:55      1.39    0.29    0.27
  YS02001915YS02001910 CONDUIT     46.13     0  03:00      0.44    0.02    0.39
  YS02001918YS02001915 CONDUIT     16.27     0  03:04      0.44    0.01    0.18
  YS02001923YS02001920 CONDUIT     13.42     0  03:02      0.30    0.01    0.11
  YS02001926YS02001923 CONDUIT     13.38     0  03:02      0.36    0.02    0.09
  YS02001929YS02001926 CONDUIT     13.36     0  03:01      0.37    0.01    0.09
  YS02001920YS02001918 CONDUIT     16.28     0  03:03      0.33    0.02    0.11
  YS02001629YS02163301 CONDUIT     38.08     0  02:37      0.08    0.05    1.00
  YS02001619YS02001622 CONDUIT     30.95     0  04:41      0.54    0.05    0.88
  YS02001622YS02001625 CONDUIT     32.42     0  02:36      0.17    0.02    0.95
  YS02001625YS02001629 CONDUIT     39.45     0  04:39      0.17    0.02    0.93
  YS02163301YS02001633 CONDUIT     34.67     0  02:37      0.08    0.03    1.00
  YS02163601YS02164001 CONDUIT     63.37     0  02:37      0.11    0.06    1.00
  YS02164001YS02001641 CONDUIT     58.41     0  02:37      0.11    0.08    1.00
  YS02001641YS02001644 CONDUIT     54.65     0  02:55      0.12    0.18    1.00
  YS02001647YS02001649 CONDUIT     87.16     0  02:46      0.16    0.05    1.00
  YS02006553YS02006556 CONDUIT    102.17     0  02:56      0.18    0.09    0.69
  YS02006556YS02006558 CONDUIT    102.16     0  02:57      0.17    0.08    0.72
  YSB6556YSB1171       CONDUIT      6.75     0  02:18      0.04    0.01    0.50
  YS02001907YS02006553 CONDUIT    102.13     0  02:56      0.14    0.12    0.78
  YS02006558YS02006561 CONDUIT    149.89     0  02:53      1.89    0.33    0.32
  YS02001633YS02163601 CONDUIT     67.85     0  02:36      0.12    0.07    1.00
  YS02001644YS02001647 CONDUIT     85.86     0  02:45      0.17    0.05    1.00
  YS02001745YS02001748 CONDUIT     32.88     0  03:00      1.14    0.01    0.46
  YS02001748YS02001751 CONDUIT     66.95     0  04:24      0.92    0.03    0.82
  YS02001751YS02001754 CONDUIT     57.42     0  03:24      0.85    0.03    0.96
  YS02001754YS02001757 CONDUIT     71.18     0  03:24      0.33    0.03    1.00
  YS02001882YS02001884 CONDUIT      2.11     0  02:05      0.07    0.00    0.33
  YS02001884YS02001887 CONDUIT      6.55     0  02:04      0.05    0.01    0.42
  YS02001890YS02001895 CONDUIT     56.86     0  02:47      0.20    0.03    0.39
  YS02001895YS02001898 CONDUIT     56.83     0  02:46      0.43    0.10    0.26
  YS02001898YS02001901 CONDUIT     56.86     0  02:48      0.25    0.04    0.34
  YS02001901YS02001904 CONDUIT     56.61     0  02:49      0.21    0.09    0.39
  YS02001904YS02001907 CONDUIT     56.71     0  02:49      0.13    0.02    0.55
  YS02001887YS02001890 CONDUIT     57.04     0  02:44      0.16    0.10    0.48
  YS02001652YS02001649 CONDUIT     56.08     0  04:22      0.26    0.03    1.00
  YS02001655YS02001652 CONDUIT     46.66     0  03:05      0.91    0.02    0.97
  YS02001658YS02001655 CONDUIT     62.25     0  04:20      1.05    0.03    0.80
  YS02001661YS02001658 CONDUIT     40.19     0  02:43      1.16    0.02    0.49
  YS02001664YS02001661 CONDUIT     40.19     0  02:43      0.77    0.01    0.21
  YSB1154YSB6556       CONDUIT      6.67     0  02:15      0.19    0.01    0.39
  YSB1174YSB1171       CONDUIT      6.21     0  02:11      0.03    0.01    0.50
  YSB1171HS02004479    CONDUIT     12.35     0  02:18      0.54    0.01    0.38
  HS02004881HS02006253 CONDUIT     19.83     0  02:17      1.28    0.00    0.02
  YS02001793JiankangQianchi CONDUIT    153.28     0  02:51     10.61    0.01    0.54
  YS02001757CaochengTiaoxuchi CONDUIT    219.18     0  02:57      0.56    0.10    0.90
  WSF200WS02003060     CONDUIT    320.73     0  02:57      1.62    0.07    0.26
  1                    CONDUIT    672.66     0  04:07      2.98    0.23    0.33
  CC-Pump-1            PUMP         0.00     0  00:00              0.00
  CC-Pump-2            PUMP         0.00     0  00:00              0.00
  JK-Pump-1            PUMP       300.00     0  00:00              1.00
  JK-Pump-2            PUMP       341.07     0  05:05              0.50
  XR-Pump-1            PUMP        95.00     0  00:00              1.00
  XR-Pump-2            PUMP        95.00     0  00:00              1.00
  XR-Pump-3            PUMP        95.00     0  00:00              1.00
  XR-Pump-4            PUMP        95.00     0  00:00              1.00
  
  
  ***************************
  Flow Classification Summary
  ***************************
  
  -------------------------------------------------------------------------------------
                      Adjusted    ---------- Fraction of Time in Flow Class ---------- 
                       /Actual         Up    Down  Sub   Sup   Up    Down  Norm  Inlet 
  Conduit               Length    Dry  Dry   Dry   Crit  Crit  Crit  Crit  Ltd   Ctrl  
  -------------------------------------------------------------------------------------
  WS02003066WSF200        1.00   0.02  0.06  0.00  0.00  0.92  0.00  0.00  0.90  0.00
  WS02006287WS02006284    1.00   0.09  0.06  0.00  0.61  0.24  0.00  0.00  0.81  0.00
  WS02006284WS02006280    1.00   0.11  0.00  0.00  0.00  0.00  0.00  0.89  0.00  0.00
  WS02006280WS02006229    1.00   0.11  0.00  0.00  0.00  0.00  0.00  0.89  0.00  0.00
  WS02006229WS02006228    1.00   0.00  0.00  0.00  0.99  0.00  0.00  0.01  0.00  0.00
  WS02006256WS02006235    1.00   0.00  0.00  0.00  1.00  0.00  0.00  0.00  0.00  0.00
  WS02006253WS02006251    1.00   0.05  0.05  0.00  0.89  0.00  0.01  0.00  0.00  0.00
  WS02006252WS02006251    1.00   1.00  0.00  0.00  0.00  0.00  0.00  0.00  0.00  0.00
  WS02006251WS02006249    1.00   0.00  0.00  0.00  1.00  0.00  0.00  0.00  0.98  0.00
  WS02006249WS02006248    1.00   0.00  0.02  0.00  0.15  0.00  0.83  0.00  0.00  0.00
  WS02006248WS02006247    1.00   0.02  0.00  0.00  0.98  0.00  0.00  0.00  0.77  0.00
  WS02006247WS02006245    1.00   0.01  0.00  0.00  0.99  0.00  0.00  0.00  0.00  0.00
  WS02006245WS02006243    1.00   0.01  0.00  0.00  0.81  0.00  0.00  0.18  0.09  0.00
  WS02006243WS02006242    1.00   0.01  0.00  0.00  0.99  0.00  0.00  0.00  0.65  0.00
  WS02006242WS02006240    1.00   0.00  0.00  0.00  1.00  0.00  0.00  0.00  0.00  0.00
  WS02006240WS02006239    1.00   0.00  0.00  0.00  0.66  0.00  0.00  0.33  0.03  0.00
  WS02006239WS02006238    1.00   0.00  0.00  0.00  1.00  0.00  0.00  0.00  0.32  0.00
  WS02006238WS02006235    1.00   0.00  0.00  0.00  1.00  0.00  0.00  0.00  0.00  0.00
  WS02006235WS02006234    1.00   0.00  0.00  0.00  0.77  0.00  0.23  0.00  0.00  0.00
  WS02006234WS02006232    1.00   0.00  0.00  0.00  1.00  0.00  0.00  0.00  0.22  0.00
  WS02006232WS02006231    1.00   0.00  0.00  0.00  0.99  0.00  0.01  0.00  0.00  0.00
  WS02006231WS02006230    1.00   0.00  0.00  0.00  0.05  0.00  0.94  0.00  0.00  0.00
  WS02006230WS02006229    1.00   0.00  0.00  0.00  0.99  0.00  0.00  0.01  0.01  0.00
  WS02006228WS02006109    1.00   0.00  0.00  0.00  0.99  0.00  0.00  0.01  0.01  0.00
  WS02006116WS02004401    1.00   0.03  0.00  0.00  0.97  0.00  0.00  0.00  0.00  0.00
  WS02006115WS02006116    1.00   0.02  0.00  0.00  0.97  0.00  0.00  0.01  0.00  0.00
  WS02006113WS02006111    1.00   0.02  0.00  0.00  0.00  0.98  0.00  0.00  0.22  0.00
  WS02006112WS02006115    1.00   0.02  0.01  0.00  0.97  0.00  0.00  0.00  0.00  0.00
  WS02006111WS02006112    1.00   0.02  0.00  0.00  0.98  0.00  0.00  0.00  0.98  0.00
  WS02006110WS02006113    1.00   0.01  0.01  0.00  0.98  0.00  0.00  0.00  0.00  0.00
  WS02006109WS02006110    1.00   0.00  0.01  0.00  0.98  0.00  0.01  0.00  0.00  0.00
  WS02004411WS02004412    1.00   0.05  0.00  0.00  0.95  0.00  0.00  0.00  0.00  0.00
  WS02004401WS02004402    1.00   0.03  0.00  0.00  0.97  0.00  0.00  0.00  0.00  0.00
  WS02004413WS02003067    1.00   0.05  0.02  0.00  0.00  0.00  0.93  0.00  0.00  0.00
  WS02004412WS02004413    1.00   0.05  0.00  0.00  0.95  0.00  0.00  0.00  0.01  0.00
  WS02004410WS02004411    1.00   0.05  0.00  0.00  0.95  0.00  0.00  0.00  0.00  0.00
  WS02004409WS02004410    1.00   0.05  0.00  0.00  0.95  0.00  0.00  0.00  0.02  0.00
  WS02004407WS02004409    1.00   0.05  0.00  0.00  0.95  0.01  0.00  0.00  0.95  0.00
  WS02004406WS02004407    1.00   0.00  0.04  0.00  0.95  0.00  0.00  0.00  0.00  0.00
  WS02004405WS02004406    1.00   0.00  0.00  0.00  1.00  0.00  0.00  0.00  0.00  0.00
  WS02004404WS02004405    1.00   0.00  0.00  0.00  1.00  0.00  0.00  0.00  0.00  0.00
  WS02004403WS02004404    1.00   0.00  0.03  0.00  0.97  0.00  0.00  0.00  0.00  0.00
  WS02004402WS02004403    1.00   0.03  0.00  0.00  0.97  0.00  0.00  0.00  0.00  0.00
  WS02004139WS02001211    1.00   0.00  0.00  0.00  1.00  0.00  0.00  0.00  0.00  0.00
  WS02004138WS02004139    1.00   0.00  0.04  0.00  0.95  0.01  0.00  0.00  1.00  0.00
  WS02003067WS02003066    1.00   0.07  0.01  0.00  0.92  0.00  0.00  0.00  0.00  0.00
  WS02001213WS02003059    1.00   0.00  0.00  0.00  0.99  0.00  0.00  0.00  0.00  0.00
  WS02001212WS02001213    1.00   0.00  0.00  0.00  0.44  0.00  0.56  0.00  0.00  0.00
  WS02001211WS02001212    1.00   0.00  0.00  0.00  1.00  0.00  0.00  0.00  0.00  0.00
  WS02003072WS02003073    1.00   0.00  0.00  0.00  0.00  0.00  0.00  1.00  0.00  0.00
  WS02003069WS02003072    1.00   0.00  0.00  0.00  0.99  0.01  0.00  0.00  0.45  0.00
  WS02003060WS02003069    1.00   0.00  0.00  0.00  0.95  0.05  0.00  0.00  0.35  0.00
  WS02003059WS02003060    1.00   0.00  0.00  0.00  1.00  0.00  0.00  0.00  0.01  0.00
  HS02004901HS02004770    1.00   0.11  0.00  0.00  0.89  0.00  0.00  0.00  0.02  0.00
  HS02004876HS02004881    1.00   0.02  0.00  0.00  0.98  0.00  0.00  0.00  0.00  0.00
  HS02004870HS02004876    1.00   0.01  0.00  0.00  0.98  0.01  0.00  0.00  0.95  0.00
  HS02004842HS02004848    1.00   0.00  0.12  0.00  0.88  0.00  0.00  0.00  0.70  0.00
  HS02004837HS02004842    1.00   0.00  0.00  0.00  0.99  0.01  0.00  0.00  0.11  0.00
  HS02004830HS02004837    1.00   0.00  0.00  0.00  1.00  0.00  0.00  0.00  0.99  0.00
  HS02004824HS02004830    1.00   0.00  0.00  0.00  1.00  0.00  0.00  0.00  0.00  0.00
  HS02004817HS02004824    1.00   0.00  0.00  0.00  1.00  0.00  0.00  0.00  1.00  0.00
  HS02004770HS02004777    1.00   0.00  0.11  0.00  0.89  0.00  0.00  0.00  0.07  0.00
  HS02004799HS02004480    1.00   0.00  0.04  0.00  0.84  0.00  0.12  0.00  0.00  0.00
  HS02004792HS02004799    1.00   0.00  0.00  0.00  0.99  0.01  0.00  0.00  0.98  0.00
  HS02004788HS02004792    1.00   0.00  0.00  0.00  0.99  0.01  0.00  0.00  0.98  0.00
  HS02004785HS02004788    1.00   0.00  0.00  0.00  1.00  0.00  0.00  0.00  0.00  0.00
  HS02004777HS02004785    1.00   0.00  0.00  0.00  1.00  0.00  0.00  0.00  0.20  0.00
  HS02004480HS02004478    1.00   0.13  0.00  0.00  0.63  0.00  0.00  0.24  0.00  0.00
  HS02004479HS02004480    1.00   0.04  0.00  0.00  0.96  0.00  0.00  0.00  0.16  0.00
  HS02004862HS02004870    1.00   0.00  0.00  0.00  1.00  0.00  0.00  0.00  0.05  0.00
  HS02004848HS02004852    1.00   0.12  0.00  0.00  0.88  0.00  0.00  0.00  0.71  0.00
  HS02004856HS02004862    1.00   0.00  0.20  0.00  0.80  0.00  0.00  0.00  0.74  0.00
  HS02004852HS02004856    1.00   0.11  0.03  0.00  0.86  0.00  0.00  0.00  0.82  0.00
  HS02004802HS02004478    1.00   0.11  0.03  0.00  0.86  0.00  0.00  0.00  0.00  0.00
  HS02004478WS02006287    1.00   0.15  0.00  0.00  0.85  0.00  0.00  0.00  0.81  0.00
  HS02004817HS02004807    1.00   0.00  0.11  0.00  0.89  0.00  0.00  0.00  0.00  0.00
  HS02004807HS02004802    1.00   0.11  0.00  0.00  0.88  0.00  0.00  0.01  0.01  0.00
  YS02001759YS02001757    1.00   0.00  0.00  0.00  1.00  0.00  0.00  0.00  0.17  0.00
  YS02001762YS02001759    1.00   0.00  0.00  0.00  1.00  0.00  0.00  0.00  0.05  0.00
  YS02001765YS02001762    1.00   0.00  0.00  0.00  1.00  0.00  0.00  0.00  0.22  0.00
  YS02001770YS02001767    1.00   0.00  0.00  0.00  1.00  0.00  0.00  0.00  0.00  0.00
  YS02001774YS02001770    1.00   0.00  0.14  0.00  0.85  0.00  0.00  0.00  0.06  0.00
  YS02001779YS02001774    1.00   0.00  0.00  0.00  1.00  0.00  0.00  0.00  0.27  0.00
  YS02001649YS02001757    1.00   0.00  0.00  0.00  1.00  0.00  0.00  0.00  0.19  0.00
  YS02001767YS02001765    1.00   0.00  0.00  0.00  1.00  0.00  0.00  0.00  0.01  0.00
  YS02006561YS02001783    1.00   0.21  0.00  0.00  0.00  0.79  0.00  0.00  0.73  0.00
  YS02001783YS02001784    1.00   0.00  0.21  0.00  0.79  0.00  0.00  0.00  0.14  0.00
  YS02001784YS02001785    1.00   0.00  0.00  0.00  1.00  0.00  0.00  0.00  0.25  0.00
  YS02001788YS02001790    1.00   0.00  0.00  0.00  0.22  0.78  0.00  0.00  0.99  0.00
  YS02001790YS02001791    1.00   0.00  0.00  0.00  0.02  0.98  0.00  0.00  0.34  0.00
  YS02001791YS02001793    1.00   0.00  0.00  0.00  0.00  1.00  0.00  0.00  0.00  0.00
  YS02001910YS02001907    1.00   0.00  0.00  0.00  0.97  0.00  0.00  0.03  0.13  0.00
  YS02001786YS02001788    1.00   0.00  0.00  0.00  0.27  0.73  0.00  0.00  0.00  0.00
  YS02001915YS02001910    1.00   0.00  0.00  0.00  0.98  0.01  0.00  0.00  0.24  0.00
  YS02001918YS02001915    1.00   0.00  0.01  0.00  0.97  0.02  0.00  0.00  0.81  0.00
  YS02001923YS02001920    1.00   0.00  0.00  0.00  1.00  0.00  0.00  0.00  1.00  0.00
  YS02001926YS02001923    1.00   0.00  0.07  0.00  0.00  0.00  0.93  0.00  0.00  0.00
  YS02001929YS02001926    1.00   0.00  0.11  0.00  0.89  0.00  0.00  0.00  0.86  0.00
  YS02001920YS02001918    1.00   0.00  0.01  0.00  0.99  0.00  0.00  0.00  0.00  0.00
  YS02001629YS02163301    1.00   0.17  0.01  0.00  0.81  0.00  0.00  0.00  0.00  0.00
  YS02001619YS02001622    1.00   0.11  0.00  0.00  0.89  0.00  0.00  0.00  0.00  0.00
  YS02001622YS02001625    1.00   0.11  0.00  0.00  0.89  0.00  0.00  0.00  0.13  0.00
  YS02001625YS02001629    1.00   0.12  0.10  0.00  0.73  0.00  0.05  0.00  0.00  0.00
  YS02163301YS02001633    1.00   0.00  0.17  0.00  0.83  0.00  0.00  0.00  0.00  0.00
  YS02163601YS02164001    1.00   0.00  0.07  0.00  0.93  0.00  0.00  0.00  0.00  0.00
  YS02164001YS02001641    1.00   0.01  0.06  0.00  0.93  0.00  0.00  0.00  0.07  0.00
  YS02001641YS02001644    1.00   0.00  0.01  0.00  0.99  0.00  0.00  0.00  0.00  0.00
  YS02001647YS02001649    1.00   0.00  0.20  0.00  0.80  0.00  0.00  0.00  0.01  0.00
  YS02006553YS02006556    1.00   0.02  0.00  0.00  0.98  0.00  0.00  0.00  0.03  0.00
  YS02006556YS02006558    1.00   0.00  0.00  0.00  1.00  0.00  0.00  0.00  0.00  0.00
  YSB6556YSB1171          1.00   0.04  0.06  0.00  0.90  0.00  0.00  0.00  0.00  0.00
  YS02001907YS02006553    1.00   0.00  0.02  0.00  0.97  0.00  0.00  0.00  0.00  0.00
  YS02006558YS02006561    1.00   0.21  0.00  0.00  0.00  0.79  0.00  0.00  0.72  0.00
  YS02001633YS02163601    1.00   0.00  0.01  0.00  0.99  0.00  0.00  0.00  0.20  0.00
  YS02001644YS02001647    1.00   0.00  0.20  0.00  0.80  0.00  0.00  0.00  0.00  0.00
  YS02001745YS02001748    1.00   0.00  0.00  0.00  0.55  0.03  0.00  0.42  0.28  0.00
  YS02001748YS02001751    1.00   0.00  0.00  0.00  0.90  0.10  0.00  0.00  0.28  0.00
  YS02001751YS02001754    1.00   0.00  0.00  0.00  0.77  0.00  0.00  0.23  0.03  0.00
  YS02001754YS02001757    1.00   0.00  0.00  0.00  0.99  0.01  0.00  0.00  0.27  0.00
  YS02001882YS02001884    1.00   0.16  0.01  0.00  0.82  0.00  0.00  0.00  0.00  0.00
  YS02001884YS02001887    1.00   0.06  0.04  0.00  0.90  0.00  0.00  0.00  0.00  0.00
  YS02001890YS02001895    1.00   0.00  0.18  0.00  0.82  0.00  0.00  0.00  0.00  0.00
  YS02001895YS02001898    1.00   0.18  0.00  0.00  0.78  0.00  0.03  0.00  0.00  0.00
  YS02001898YS02001901    1.00   0.17  0.02  0.00  0.81  0.00  0.00  0.00  0.02  0.00
  YS02001901YS02001904    1.00   0.17  0.00  0.00  0.83  0.00  0.00  0.00  0.00  0.00
  YS02001904YS02001907    1.00   0.00  0.17  0.00  0.83  0.00  0.00  0.00  0.00  0.00
  YS02001887YS02001890    1.00   0.00  0.00  0.00  0.96  0.00  0.03  0.00  0.00  0.00
  YS02001652YS02001649    1.00   0.00  0.00  0.00  1.00  0.00  0.00  0.00  0.26  0.00
  YS02001655YS02001652    1.00   0.00  0.00  0.00  0.77  0.00  0.00  0.22  0.03  0.00
  YS02001658YS02001655    1.00   0.00  0.15  0.00  0.74  0.11  0.00  0.00  0.21  0.00
  YS02001661YS02001658    1.00   0.15  0.00  0.00  0.56  0.29  0.00  0.00  0.39  0.00
  YS02001664YS02001661    1.00   0.11  0.00  0.00  0.89  0.00  0.00  0.00  0.86  0.00
  YSB1154YSB6556          1.00   0.10  0.00  0.00  0.90  0.00  0.00  0.00  0.02  0.00
  YSB1174YSB1171          1.00   0.05  0.03  0.00  0.92  0.00  0.00  0.00  0.00  0.00
  YSB1171HS02004479       1.00   0.04  0.00  0.00  0.95  0.00  0.00  0.01  0.13  0.00
  HS02004881HS02006253    1.00   0.05  0.00  0.00  0.00  0.00  0.00  0.95  0.00  0.00
  YS02001793JiankangQianchi    1.00   0.00  0.00  0.00  0.60  0.40  0.00  0.00  0.71  0.00
  YS02001757CaochengTiaoxuchi    1.00   0.00  0.27  0.00  0.73  0.00  0.00  0.00  0.00  0.00
  WSF200WS02003060        1.00   0.00  0.02  0.00  0.76  0.21  0.00  0.00  0.81  0.00
  1                       1.00   0.00  0.00  0.00  0.00  1.00  0.00  0.00  0.47  0.00
  
  
  *************************
  Conduit Surcharge Summary
  *************************
  
  ----------------------------------------------------------------------------
                                                           Hours        Hours 
                         --------- Hours Full --------   Above Full   Capacity
  Conduit                Both Ends  Upstream  Dnstream   Normal Flow   Limited
  ----------------------------------------------------------------------------
  WS02006229WS02006228        0.01      0.01      0.01      0.17         0.01
  WS02006256WS02006235        2.36      2.36      5.47      2.13         0.01
  WS02006235WS02006234        0.01      0.01      0.01      2.25         0.01
  WS02006231WS02006230        0.01      0.01      0.01      3.19         0.01
  WS02006230WS02006229        0.01      0.08      0.01      3.68         0.01
  WS02006228WS02006109        0.01      0.01      0.01      0.97         0.01
  WS02006111WS02006112        0.01      0.01      0.20      0.01         0.01
  WS02004404WS02004405        0.01      0.01      0.01      3.30         0.01
  WS02003072WS02003073        0.01      0.01      0.01      2.20         0.01
  YS02001759YS02001757        3.78      3.78      4.36      0.01         0.01
  YS02001762YS02001759        3.57      3.57      3.78      0.01         0.01
  YS02001765YS02001762        3.25      3.25      3.57      0.01         0.01
  YS02001770YS02001767        2.96      2.96      3.00      0.01         0.01
  YS02001774YS02001770        2.73      2.73      3.43      0.01         0.01
  YS02001779YS02001774        1.30      1.30      3.43      0.01         0.01
  YS02001649YS02001757        3.63      3.63      4.36      0.01         0.01
  YS02001767YS02001765        3.00      3.00      3.25      0.01         0.01
  YS02001629YS02163301        2.55      2.55      2.79      0.01         0.01
  YS02001622YS02001625        0.01      0.01      2.09      0.01         0.01
  YS02001625YS02001629        0.01      0.01      2.09      0.01         0.01
  YS02163301YS02001633        2.79      2.79      3.23      0.01         0.01
  YS02163601YS02164001        3.20      3.20      3.59      0.01         0.01
  YS02164001YS02001641        3.20      3.20      3.33      0.01         0.01
  YS02001641YS02001644        3.33      3.33      3.36      0.01         0.02
  YS02001647YS02001649        2.04      2.04      3.63      0.01         0.01
  YS02001633YS02163601        3.10      3.10      3.59      0.01         0.01
  YS02001644YS02001647        2.04      2.04      3.36      0.01         0.01
  YS02001751YS02001754        0.01      0.01      1.59      0.01         0.01
  YS02001754YS02001757        2.06      2.06      4.36      0.01         0.01
  YS02001652YS02001649        2.16      2.16      3.63      0.01         0.01
  YS02001655YS02001652        0.01      0.01      1.89      0.01         0.01
  YS02001793JiankangQianchi        0.01      0.01      2.37      0.01         0.01
  YS02001757CaochengTiaoxuchi        0.01      0.01      4.36      0.01         0.01
  
  
  ***************
  Pumping Summary
  ***************
  
  ---------------------------------------------------------------------------------------------------------
                                                  Min       Avg       Max     Total     Power    % Time Off
                        Percent   Number of      Flow      Flow      Flow    Volume     Usage    Pump Curve
  Pump                 Utilized   Start-Ups       LPS       LPS       LPS  10^6 ltr     Kw-hr    Low   High
  ---------------------------------------------------------------------------------------------------------
  CC-Pump-1                0.00           0      0.00      0.00      0.00     0.000      0.00    0.0    0.0
  CC-Pump-2                0.00           0      0.00      0.00      0.00     0.000      0.00    0.0    0.0
  JK-Pump-1               46.82           5      0.00    134.84    300.00     1.744     32.44    0.0    0.0
  JK-Pump-2               14.89           3      0.00     74.33    341.07     0.309      6.33    0.0   95.7
  XR-Pump-1               78.71           4      0.00     85.34     95.00     1.910     40.29    0.0    0.0
  XR-Pump-2               78.71           4      0.00     83.57     95.00     1.853     39.04    0.0    0.0
  XR-Pump-3               61.69           5      0.00     80.08     95.00     1.397     29.47    0.0    0.0
  XR-Pump-4               61.69           5      0.00     80.08     95.00     1.397     29.47    0.0    0.0
  
  
  ***************************
  Link Pollutant Load Summary
  ***************************
  
  ------------------------------------------------------------------------------------------
                                 COD            SS            TN            TP         NH4-N
  Link                            kg            kg            kg            kg            kg
  ------------------------------------------------------------------------------------------
  WS02003066WSF200           147.628       237.902         9.005         1.038         5.409
  WS02006287WS02006284        77.851       127.352         5.690         0.683         3.478
  WS02006284WS02006280        78.274       128.030         5.730         0.688         3.503
  WS02006280WS02006229        78.253       127.996         5.729         0.687         3.502
  WS02006229WS02006228       142.971       230.260         8.649         0.994         5.190
  WS02006256WS02006235        59.455        93.197         2.757         0.292         1.600
  WS02006253WS02006251         6.050        10.398         0.222         0.021         0.123
  WS02006252WS02006251         0.000         0.000         0.000         0.000         0.000
  WS02006251WS02006249         6.612        11.302         0.275         0.028         0.156
  WS02006249WS02006248         6.649        11.353         0.279         0.028         0.158
  WS02006248WS02006247         6.756        11.522         0.282         0.029         0.160
  WS02006247WS02006245         7.210        12.230         0.305         0.031         0.173
  WS02006245WS02006243         7.871        13.264         0.331         0.034         0.188
  WS02006243WS02006242         9.720        16.190         0.403         0.041         0.229
  WS02006242WS02006240        13.380        21.938         0.560         0.057         0.319
  WS02006240WS02006239        17.095        27.725         0.736         0.076         0.421
  WS02006239WS02006238        21.141        33.944         0.942         0.098         0.542
  WS02006238WS02006235        23.756        37.956         1.071         0.112         0.618
  WS02006235WS02006234        65.332       103.260         2.979         0.314         1.724
  WS02006234WS02006232        65.686       103.815         2.997         0.316         1.735
  WS02006232WS02006231        65.468       103.473         2.985         0.315         1.727
  WS02006231WS02006230        64.898       102.573         2.954         0.311         1.709
  WS02006230WS02006229        65.295       103.186         2.974         0.313         1.721
  WS02006228WS02006109       142.502       229.519         8.596         0.987         5.156
  WS02006116WS02004401       150.005       241.629         9.215         1.064         5.540
  WS02006115WS02006116       150.167       241.880         9.235         1.066         5.552
  WS02006113WS02006111       149.751       241.115         9.293         1.075         5.592
  WS02006112WS02006115       150.651       242.661         9.275         1.071         5.576
  WS02006111WS02006112       149.638       240.937         9.276         1.072         5.582
  WS02006110WS02006113       149.999       241.517         9.314         1.077         5.605
  WS02006109WS02006110       150.690       242.628         9.373         1.084         5.642
  WS02004411WS02004412       148.898       239.933         9.112         1.051         5.475
  WS02004401WS02004402       149.590       240.962         9.179         1.059         5.517
  WS02004413WS02003067       147.902       238.318         9.027         1.040         5.422
  WS02004412WS02004413       148.415       239.172         9.072         1.046         5.451
  WS02004410WS02004411       149.166       240.350         9.136         1.054         5.490
  WS02004409WS02004410       149.406       240.731         9.157         1.056         5.503
  WS02004407WS02004409       149.446       240.779         9.163         1.057         5.507
  WS02004406WS02004407       149.288       240.507         9.153         1.056         5.501
  WS02004405WS02004406       149.919       241.523         9.209         1.063         5.536
  WS02004404WS02004405       149.872       241.417         9.209         1.063         5.536
  WS02004403WS02004404       148.972       239.977         9.122         1.052         5.481
  WS02004402WS02004403       149.352       240.590         9.155         1.056         5.502
  WS02004139WS02001211      1124.235      1798.550       107.275        13.393        66.995
  WS02004138WS02004139      1124.504      1798.979       107.299        13.396        67.010
  WS02003067WS02003066       147.654       237.944         9.008         1.038         5.411
  WS02001213WS02003059      1169.490      1870.958       111.620        13.936        69.711
  WS02001212WS02001213      1172.330      1875.502       111.893        13.970        69.882
  WS02001211WS02001212      1173.589      1877.516       112.013        13.985        69.956
  WS02003072WS02003073      1430.557      2290.395       131.524        16.336        81.932
  WS02003069WS02003072      1432.694      2293.802       131.733        16.362        82.063
  WS02003060WS02003069      1431.462      2291.818       131.610        16.347        81.985
  WS02003059WS02003060      1169.946      1871.688       111.659        13.941        69.735
  HS02004901HS02004770         1.149         1.967         0.023         0.002         0.011
  HS02004876HS02004881         5.199         8.885         0.209         0.021         0.117
  HS02004870HS02004876         4.228         7.188         0.196         0.020         0.112
  HS02004842HS02004848         0.636         1.050         0.015         0.001         0.007
  HS02004837HS02004842         5.282         8.477         0.477         0.059         0.296
  HS02004830HS02004837        45.379        72.924         4.167         0.518         2.597
  HS02004824HS02004830        46.130        74.126         4.239         0.527         2.642
  HS02004817HS02004824        48.754        78.563         4.323         0.534         2.687
  HS02004770HS02004777         4.530         7.810         0.105         0.007         0.047
  HS02004799HS02004480        27.420        45.174         1.651         0.190         0.984
  HS02004792HS02004799        26.470        43.376         1.680         0.196         1.007
  HS02004788HS02004792        19.239        31.512         1.391         0.166         0.845
  HS02004785HS02004788         6.016        10.198         0.256         0.026         0.142
  HS02004777HS02004785         5.553         9.455         0.213         0.020         0.116
  HS02004480HS02004478        30.481        50.632         1.660         0.188         0.980
  HS02004479HS02004480         7.691        12.856         0.452         0.053         0.273
  HS02004862HS02004870         3.311         5.515         0.177         0.019         0.103
  HS02004848HS02004852         0.619         1.024         0.015         0.001         0.007
  HS02004856HS02004862         1.310         2.271         0.029         0.002         0.013
  HS02004852HS02004856         0.619         1.024         0.015         0.001         0.007
  HS02004802HS02004478        47.690        77.234         4.060         0.499         2.517
  HS02004478WS02006287        78.029       127.637         5.707         0.685         3.489
  HS02004817HS02004807        47.359        76.334         4.190         0.517         2.604
  HS02004807HS02004802        48.494        78.520         4.138         0.508         2.565
  YS02001759YS02001757        36.818        57.239         1.092         0.091         0.580
  YS02001762YS02001759        20.943        33.027         0.747         0.068         0.412
  YS02001765YS02001762        20.852        32.843         0.777         0.072         0.431
  YS02001770YS02001767        18.446        28.871         0.490         0.034         0.248
  YS02001774YS02001770         3.825         6.037         0.118         0.010         0.063
  YS02001779YS02001774         3.595         5.723         0.195         0.021         0.115
  YS02001649YS02001757        50.825        76.780         1.456         0.122         0.747
  YS02001767YS02001765        21.089        33.186         0.805         0.075         0.449
  YS02006561YS02001783        95.098       148.186         3.933         0.399         2.240
  YS02001783YS02001784        95.038       148.098         3.929         0.398         2.238
  YS02001784YS02001785       102.420       159.922         4.641         0.487         2.683
  YS02001788YS02001790       103.125       161.064         4.714         0.497         2.729
  YS02001790YS02001791       104.129       162.677         4.813         0.509         2.791
  YS02001791YS02001793       104.070       162.586         4.808         0.508         2.788
  YS02001910YS02001907        41.155        64.329         2.513         0.282         1.502
  YS02001786YS02001788       102.680       160.346         4.669         0.491         2.701
  YS02001915YS02001910        41.067        64.130         2.482         0.277         1.482
  YS02001918YS02001915        27.842        43.404         2.151         0.259         1.322
  YS02001923YS02001920         7.839        11.385         0.224         0.018         0.118
  YS02001926YS02001923         7.454        10.764         0.185         0.013         0.093
  YS02001929YS02001926         7.141        10.254         0.153         0.009         0.073
  YS02001920YS02001918        27.790        43.313         2.141         0.258         1.316
  YS02001629YS02163301         7.735        11.711         0.192         0.012         0.089
  YS02001619YS02001622        10.209        15.309         0.254         0.015         0.116
  YS02001622YS02001625         9.514        14.327         0.236         0.014         0.107
  YS02001625YS02001629         8.596        12.996         0.213         0.013         0.097
  YS02163301YS02001633         7.517        11.387         0.188         0.012         0.087
  YS02163601YS02164001        23.695        35.582         0.657         0.053         0.335
  YS02164001YS02001641        23.316        35.000         0.634         0.050         0.322
  YS02001641YS02001644        23.333        35.031         0.621         0.049         0.314
  YS02001647YS02001649        36.830        55.018         0.896         0.067         0.442
  YS02006553YS02006556        72.190       112.548         3.281         0.346         1.902
  YS02006556YS02006558        72.111       112.402         3.246         0.341         1.880
  YSB6556YSB1171               3.333         5.623         0.149         0.017         0.088
  YS02001907YS02006553        72.185       112.536         3.285         0.347         1.905
  YS02006558YS02006561        95.110       148.199         3.933         0.399         2.241
  YS02001633YS02163601        24.144        36.180         0.639         0.050         0.321
  YS02001644YS02001647        37.467        55.896         0.913         0.068         0.451
  YS02001745YS02001748        15.975        24.576         0.502         0.039         0.264
  YS02001748YS02001751        18.722        29.036         0.775         0.074         0.436
  YS02001751YS02001754        16.394        25.442         0.636         0.058         0.353
  YS02001754YS02001757        18.125        28.246         0.808         0.080         0.461
  YS02001882YS02001884         0.246         0.371         0.010         0.001         0.006
  YS02001884YS02001887         0.950         1.460         0.036         0.004         0.020
  YS02001890YS02001895        31.850        49.343         0.793         0.067         0.414
  YS02001895YS02001898        31.740        49.184         0.787         0.066         0.411
  YS02001898YS02001901        31.652        49.063         0.785         0.066         0.409
  YS02001901YS02001904        31.813        49.353         0.810         0.070         0.426
  YS02001904YS02001907        32.763        50.918         0.917         0.083         0.493
  YS02001887YS02001890        32.687        50.640         0.860         0.075         0.456
  YS02001652YS02001649        16.277        25.159         0.612         0.058         0.328
  YS02001655YS02001652        16.853        26.044         0.667         0.065         0.362
  YS02001658YS02001655        17.336        26.630         0.632         0.058         0.335
  YS02001661YS02001658        14.324        21.750         0.344         0.022         0.154
  YS02001664YS02001661        14.415        21.858         0.347         0.022         0.155
  YSB1154YSB6556               2.810         4.788         0.085         0.008         0.047
  YSB1174YSB1171               2.348         4.026         0.103         0.011         0.060
  YSB1171HS02004479            7.534        12.612         0.435         0.051         0.262
  HS02004881HS02006253         5.780         9.924         0.219         0.021         0.122
  YS02001793JiankangQianchi       104.305       162.980         4.833         0.512         2.804
  YS02001757CaochengTiaoxuchi        98.012       150.438         2.919         0.245         1.529
  WSF200WS02003060           147.450       237.618         8.991         1.036         5.400
  1                         1444.159      2312.181       132.867        16.505        82.773
  CC-Pump-1                    0.000         0.000         0.000         0.000         0.000
  CC-Pump-2                    0.000         0.000         0.000         0.000         0.000
  JK-Pump-1                   66.231       103.828         3.056         0.323         1.772
  JK-Pump-2                    4.298         6.679         0.174         0.017         0.099
  XR-Pump-1                  340.747       545.130        32.529         4.061        20.316
  XR-Pump-2                  326.590       522.479        31.170         3.892        19.467
  XR-Pump-3                  229.611       367.329        21.898         2.734        13.675
  XR-Pump-4                  229.611       367.329        21.898         2.734        13.675
  

  Analysis begun on:  Sat Jul 10 21:26:56 2021
  Analysis ended on:  Sat Jul 10 21:26:57 2021
  Total elapsed time: 00:00:01