
  EPA STORM WATER MANAGEMENT MODEL - VERSION 5.1 (Build 5.3.0.dev0)
  --------------------------------------------------------------

  WARNING 04: minimum elevation drop used for Conduit WS02004404WS02004405
  WARNING 03: negative offset ignored for Link YS02001904YS02001907
  
  *********************************************************
  NOTE: The summary statistics displayed in this report are
  based on results found at every computational time step,  
  not just on results from each reporting time step.
  *********************************************************
  
  ****************
  Analysis Options
  ****************
  Flow Units ............... LPS
  Process Models:
    Rainfall/Runoff ........ YES
    RDII ................... NO
    Snowmelt ............... NO
    Groundwater ............ NO
    Flow Routing ........... YES
    Ponding Allowed ........ NO
    Water Quality .......... YES
  Infiltration Method ...... HORTON
  Flow Routing Method ...... DYNWAVE
  Surcharge Method ......... EXTRAN
  Starting Date ............ 08/28/2015 08:00:00
  Ending Date .............. 08/28/2015 15:50:00
  Antecedent Dry Days ...... 8.0
  Report Time Step ......... 00:01:00
  Wet Time Step ............ 00:01:00
  Dry Time Step ............ 00:01:00
  Routing Time Step ........ 5.00 sec
  Variable Time Step ....... YES
  Maximum Trials ........... 8
  Number of Threads ........ 4
  Head Tolerance ........... 0.001500 m
  
  
  **************************        Volume         Depth
  Runoff Quantity Continuity     hectare-m            mm
  **************************     ---------       -------
  Total Precipitation ......         3.147         6.891
  Evaporation Loss .........         0.000         0.000
  Infiltration Loss ........         0.648         1.419
  Surface Runoff ...........         1.895         4.149
  Final Storage ............         0.605         1.325
  Continuity Error (%) .....        -0.021
  
  
  **************************           COD            SS            TN            TP         NH4-N
  Runoff Quality Continuity             kg            kg            kg            kg            kg
  **************************    ----------    ----------    ----------    ----------    ----------
  Initial Buildup ..........     41378.656     70582.865      1804.177       168.684      1032.807
  Surface Buildup ..........        15.871        22.663         2.850         0.263         1.682
  Wet Deposition ...........         0.000         0.000         0.000         0.000         0.000
  Sweeping Removal .........         0.000         0.000         0.000         0.000         0.000
  Infiltration Loss ........        37.768        67.883         0.733         0.050         0.346
  BMP Removal ..............         0.000         0.000         0.000         0.000         0.000
  Surface Runoff ...........      1248.327      2176.027        24.906         1.634        11.759
  Remaining Buildup ........     40108.023     68360.907      1781.380       167.262      1022.381
  Continuity Error (%) .....         0.001         0.001         0.000         0.000         0.000
  
  
  **************************        Volume        Volume
  Flow Routing Continuity        hectare-m      10^6 ltr
  **************************     ---------     ---------
  Dry Weather Inflow .......         0.616         6.165
  Wet Weather Inflow .......         1.894        18.942
  Groundwater Inflow .......         0.000         0.000
  RDII Inflow ..............         0.000         0.000
  External Inflow ..........         0.102         1.024
  External Outflow .........         1.266        12.665
  Flooding Loss ............         0.786         7.856
  Evaporation Loss .........         0.000         0.000
  Exfiltration Loss ........         0.000         0.000
  Initial Stored Volume ....         0.076         0.761
  Final Stored Volume ......         0.639         6.389
  Continuity Error (%) .....        -0.072
  
  
  **************************           COD            SS            TN            TP         NH4-N
  Quality Routing Continuity            kg            kg            kg            kg            kg
  **************************    ----------    ----------    ----------    ----------    ----------
  Dry Weather Inflow .......      1541.201      2465.922       147.955        18.494        92.472
  Wet Weather Inflow .......      1248.086      2175.661        24.900         1.633        11.756
  Groundwater Inflow .......         0.000         0.000         0.000         0.000         0.000
  RDII Inflow ..............         0.000         0.000         0.000         0.000         0.000
  External Inflow ..........       183.418       293.469        17.608         2.201        11.005
  External Outflow .........      1760.842      2899.931       136.240        16.528        83.820
  Flooding Loss ............       604.452      1014.695        24.348         2.512        13.877
  Exfiltration Loss ........         0.000         0.000         0.000         0.000         0.000
  Mass Reacted .............         0.000         0.000         0.000         0.000         0.000
  Initial Stored Mass ......         0.000         0.000         0.000         0.000         0.000
  Final Stored Mass ........       594.318       999.674        29.356         3.239        17.251
  Continuity Error (%) .....         0.440         0.421         0.273         0.227         0.248
  
  
  *************************
  Highest Continuity Errors
  *************************
  Node HS02004842 (22.10%)
  Node YS02001884 (13.49%)
  Node YS02001774 (10.12%)
  Node YSB1171 (4.78%)
  Node HS02004817 (3.93%)
  
  
  ***************************
  Time-Step Critical Elements
  ***************************
  Link WS02006238WS02006235 (35.35%)
  Link YS02006556YS02006558 (19.00%)
  Link WS02006280WS02006229 (13.31%)
  Link WS02003066WSF200 (12.59%)
  Link YS02001791YS02001793 (3.79%)
  
  
  ********************************
  Highest Flow Instability Indexes
  ********************************
  Link WS02006113WS02006111 (60)
  Link YS02001629YS02163301 (28)
  Link YS02163301YS02001633 (27)
  Link YS02163601YS02164001 (27)
  Link YS02164001YS02001641 (27)
  
  
  *************************
  Routing Time Step Summary
  *************************
  Minimum Time Step           :     0.50 sec
  Average Time Step           :     2.88 sec
  Maximum Time Step           :     5.00 sec
  Percent in Steady State     :     0.00
  Average Iterations per Step :     4.21
  Percent Not Converging      :    21.65
  
  
  ***************************
  Subcatchment Runoff Summary
  ***************************
  
  ------------------------------------------------------------------------------------------------------------------------------
                            Total      Total      Total      Total     Imperv       Perv      Total       Total     Peak  Runoff
                           Precip      Runon       Evap      Infil     Runoff     Runoff     Runoff      Runoff   Runoff   Coeff
  Subcatchment                 mm         mm         mm         mm         mm         mm         mm    10^6 ltr      LPS
  ------------------------------------------------------------------------------------------------------------------------------
  sub0                       6.89       0.00       0.00       0.46       6.36       0.03       6.39        0.01     1.94   0.927
  sub1                       6.89       0.00       0.00       0.74       6.04       0.02       6.06        0.04    11.62   0.880
  sub2                       6.89       0.00       0.00       2.54       4.26       0.01       4.27        0.04    10.52   0.620
  sub3                       6.89       0.00       0.00       2.54       4.22       0.01       4.23        0.10    22.20   0.615
  sub4                       6.89       0.00       0.00       0.75       5.90       0.01       5.91        0.12    25.34   0.857
  sub5                       6.89       0.00       0.00       0.47       6.32       0.02       6.33        0.07    20.66   0.919
  sub7                       6.89       0.00       0.00       0.60       6.21       0.02       6.23        0.02     6.91   0.905
  sub8                       6.89       0.00       0.00       0.60       6.20       0.02       6.22        0.04    12.47   0.903
  sub9                       6.89       0.00       0.00       0.60       6.20       0.02       6.22        0.03     9.28   0.902
  sub10                      6.89       0.00       0.00       0.53       6.25       0.02       6.27        0.07    20.45   0.910
  sub11                      6.89       0.00       0.00       0.53       6.27       0.02       6.29        0.07    23.31   0.913
  sub12                      6.89       0.00       0.00       0.86       5.95       0.03       5.98        0.05    18.61   0.868
  sub14                      6.89       0.00       0.00       0.60       6.20       0.02       6.22        0.06    18.20   0.902
  sub15                      6.89       0.00       0.00       2.05       4.76       0.02       4.78        0.08    24.88   0.694
  sub16                      6.89       0.00       0.00       2.24       4.58       0.03       4.61        0.05    16.65   0.669
  sub17                      6.89       0.00       0.00       2.17       4.64       0.03       4.68        0.04    13.60   0.679
  sub22                      6.89       0.00       0.00       2.94       3.89       0.02       3.91        0.25    79.44   0.567
  sub23                      6.89       0.00       0.00       2.52       4.30       0.03       4.32        0.21    67.20   0.628
  sub60                      6.89       0.00       0.00       0.83       4.56       0.00       4.56        1.38   135.37   0.662
  sub61                      6.89       0.00       0.00       1.17       4.76       0.00       4.76        1.47   168.54   0.691
  sub62                      6.89       0.00       0.00       0.55       5.14       0.00       5.14        1.58   172.61   0.746
  sub63                      6.89       0.00       0.00       2.00       4.20       0.00       4.20        1.27   156.81   0.610
  sub64                      6.89       0.00       0.00       1.03       4.37       0.00       4.37        1.33   128.66   0.634
  sub65                      6.89       0.00       0.00       0.89       4.43       0.00       4.43        1.36   130.64   0.643
  sub66                      6.89       0.00       0.00       2.00       3.78       0.00       3.78        1.16   117.62   0.549
  sub67                      6.89       0.00       0.00       0.55       5.53       0.00       5.54        1.71   219.93   0.803
  sub68                      6.89       0.00       0.00       0.96       5.03       0.00       5.04        1.55   185.96   0.731
  sub69                      6.89       0.00       0.00       1.03       5.32       0.00       5.32        1.24   182.82   0.773
  sub70                      6.89       5.43       0.00       4.15       6.84       0.04       6.88        1.57   158.16   0.558
  sub71                      6.89       0.00       0.00       0.55       4.96       0.00       4.96        1.17   120.80   0.720
  sub72                      6.89       0.00       0.00       0.48       3.71       0.00       3.71        0.76    59.43   0.538
  1                          6.89       6.69       0.00       1.33       7.23       1.38       8.61        2.02   155.51   0.634
  2                          6.89       0.00       0.00       2.93       1.59       0.51       2.10        0.84   112.73   0.305
  
  
  ****************************
  Subcatchment Washoff Summary
  ****************************
  
  ------------------------------------------------------------------------------------------
                                 COD            SS            TN            TP         NH4-N
  Subcatchment                    kg            kg            kg            kg            kg
  ------------------------------------------------------------------------------------------
  sub0                         1.128         2.136         0.019         0.002         0.009
  sub1                         4.591         8.816         0.085         0.006         0.041
  sub2                         2.627         4.856         0.057         0.004         0.026
  sub3                         6.378        11.634         0.137         0.009         0.062
  sub4                        10.105        19.296         0.204         0.012         0.098
  sub5                        10.611        20.126         0.185         0.014         0.090
  sub7                         2.421         4.742         0.045         0.003         0.022
  sub8                         3.635         7.261         0.073         0.004         0.035
  sub9                         3.090         6.088         0.060         0.004         0.029
  sub10                        8.782        16.878         0.159         0.011         0.077
  sub11                        8.689        16.934         0.161         0.011         0.077
  sub12                        7.289        13.971         0.130         0.010         0.062
  sub14                        6.572        12.828         0.124         0.008         0.059
  sub15                        7.751        14.418         0.150         0.011         0.070
  sub16                        4.930         9.178         0.094         0.007         0.044
  sub17                        4.524         8.346         0.083         0.006         0.039
  sub22                       22.874        41.636         0.440         0.033         0.203
  sub23                       13.952        26.352         0.305         0.020         0.139
  sub60                       80.418       139.288         1.680         0.098         0.802
  sub61                      101.589       175.620         1.945         0.128         0.933
  sub62                      106.845       188.022         2.167         0.131         1.036
  sub63                       75.837       129.397         1.600         0.109         0.732
  sub64                       96.890       161.543         1.833         0.129         0.869
  sub65                       99.312       166.297         1.894         0.131         0.900
  sub66                       57.769        97.340         1.261         0.079         0.583
  sub67                      160.745       281.302         2.900         0.207         1.396
  sub68                      113.800       199.159         2.248         0.146         1.068
  sub69                      106.034       188.739         2.028         0.138         0.964
  sub70                      162.465       288.320         3.359         0.225         1.555
  sub71                       70.586       125.161         1.527         0.084         0.728
  sub72                       48.372        79.111         0.939         0.061         0.450
  1                           92.846       166.060         1.978         0.133         0.903
  2                           13.367        22.232         0.421         0.025         0.176
  ------------------------------------------------------------------------------------------
  System                    1516.825      2653.086        30.293         1.997        14.278
  
  
  ******************
  Node Depth Summary
  ******************
  
  ---------------------------------------------------------------------------------
                                 Average  Maximum  Maximum  Time of Max    Reported
                                   Depth    Depth      HGL   Occurrence   Max Depth
  Node                 Type       Meters   Meters   Meters  days hr:min      Meters
  ---------------------------------------------------------------------------------
  WS02001211           JUNCTION     0.68     0.72     5.56     0  02:33        0.72
  WS02001212           JUNCTION     0.40     0.45     5.51     0  02:32        0.45
  WS02001213           JUNCTION     0.61     0.71     5.47     0  02:31        0.71
  WS02003069           JUNCTION     0.40     0.56     5.14     0  02:31        0.56
  WS02003072           JUNCTION     0.47     0.62     4.99     0  02:31        0.62
  WS02003073           JUNCTION     0.28     0.38     4.44     0  02:32        0.38
  WS02003060           JUNCTION     0.36     0.49     5.42     0  02:30        0.49
  WS02003066           JUNCTION     0.18     0.30     5.86     0  02:28        0.30
  WS02003059           JUNCTION     0.67     0.77     5.46     0  02:31        0.77
  WS02003067           JUNCTION     0.45     0.71     6.03     0  02:28        0.71
  WS02004401           JUNCTION     0.55     0.87     6.87     0  02:24        0.87
  WS02004402           JUNCTION     0.58     0.90     6.86     0  02:24        0.90
  WS02004403           JUNCTION     0.60     0.91     6.84     0  02:24        0.91
  WS02004404           JUNCTION     0.67     0.98     6.83     0  02:25        0.98
  WS02004406           JUNCTION     0.68     0.97     6.80     0  02:25        0.97
  WS02004409           JUNCTION     0.38     0.69     6.46     0  02:27        0.69
  WS02004410           JUNCTION     0.39     0.70     6.42     0  02:27        0.70
  WS02004411           JUNCTION     0.41     0.71     6.39     0  02:27        0.71
  WS02004412           JUNCTION     0.42     0.71     6.35     0  02:27        0.71
  WS02004413           JUNCTION     0.56     0.87     6.34     0  02:28        0.87
  WS02004405           JUNCTION     0.67     0.97     6.82     0  02:25        0.97
  WS02006109           JUNCTION     0.65     1.00     7.62     0  02:20        0.99
  WS02006110           JUNCTION     0.65     0.95     7.54     0  02:15        0.94
  WS02006111           JUNCTION     0.18     0.29     7.00     0  02:23        0.29
  WS02006112           JUNCTION     0.71     1.10     6.98     0  02:28        1.09
  WS02006113           JUNCTION     0.27     0.47     7.36     0  02:22        0.46
  WS02006115           JUNCTION     0.45     0.78     6.92     0  02:25        0.78
  WS02006116           JUNCTION     0.52     0.85     6.89     0  02:24        0.85
  WS02006230           JUNCTION     0.58     1.03     7.77     0  02:22        1.03
  WS02006231           JUNCTION     0.35     0.68     7.81     0  02:25        0.68
  WS02006232           JUNCTION     0.45     0.80     7.84     0  02:24        0.80
  WS02006234           JUNCTION     0.37     0.72     7.88     0  02:24        0.72
  WS02006235           JUNCTION     0.39     0.74     7.90     0  02:25        0.73
  WS02006238           JUNCTION     0.41     0.76     7.91     0  02:25        0.76
  WS02006240           JUNCTION     0.29     0.61     7.90     0  02:25        0.61
  WS02006242           JUNCTION     0.32     0.64     7.91     0  02:25        0.64
  WS02006243           JUNCTION     0.20     0.49     7.91     0  02:25        0.49
  WS02006245           JUNCTION     0.16     0.42     7.91     0  02:26        0.42
  WS02006247           JUNCTION     0.16     0.41     7.91     0  02:26        0.41
  WS02006248           JUNCTION     0.10     0.33     7.91     0  02:26        0.33
  WS02006249           JUNCTION     0.11     0.32     7.92     0  02:26        0.32
  WS02006239           JUNCTION     0.35     0.70     7.90     0  02:24        0.69
  WS02006251           JUNCTION     0.08     0.26     7.93     0  02:26        0.26
  WS02006252           JUNCTION     0.00     0.00     8.24     0  00:00        0.00
  WS02006253           JUNCTION     0.12     0.29     7.94     0  02:25        0.29
  WS02006256           JUNCTION     1.53     2.35     9.28     0  02:08        2.35
  WS02004138           JUNCTION     0.16     0.17     7.42     0  04:18        0.17
  WS02004139           JUNCTION     0.62     0.67     5.58     0  02:33        0.67
  WS02004407           JUNCTION     0.17     0.30     6.62     0  02:25        0.30
  WS02006228           JUNCTION     0.64     1.05     7.70     0  02:21        1.04
  WS02006229           JUNCTION     0.61     1.04     7.74     0  02:22        1.04
  WS02006280           JUNCTION     0.07     0.18     8.45     0  02:12        0.18
  WS02006284           JUNCTION     0.37     0.53     8.93     0  02:12        0.53
  WS02006287           JUNCTION     0.10     0.26     9.22     0  02:12        0.26
  WSF200               JUNCTION     0.16     0.32     5.55     0  02:28        0.32
  HS02004901           JUNCTION     0.13     0.27    10.09     0  02:10        0.27
  HS02004881           JUNCTION     0.01     0.03     9.06     0  02:10        0.03
  HS02004876           JUNCTION     0.05     0.11     9.14     0  02:05        0.11
  HS02004870           JUNCTION     0.02     0.06     9.34     0  02:12        0.06
  HS02004862           JUNCTION     0.02     0.06     9.45     0  02:13        0.06
  HS02004856           JUNCTION     0.08     0.12     9.54     0  02:13        0.12
  HS02004852           JUNCTION     0.01     0.04     9.55     0  02:13        0.04
  HS02004848           JUNCTION     0.01     0.04     9.64     0  02:12        0.04
  HS02004842           JUNCTION     0.33     0.37     9.64     0  02:12        0.37
  HS02004837           JUNCTION     0.03     0.06     9.64     0  02:12        0.06
  HS02004830           JUNCTION     0.04     0.07     9.54     0  02:12        0.07
  HS02004824           JUNCTION     0.02     0.05     9.45     0  02:15        0.05
  HS02004817           JUNCTION     0.43     0.57     9.42     0  02:13        0.57
  HS02004807           JUNCTION     0.12     0.24     9.41     0  02:13        0.24
  HS02004802           JUNCTION     0.16     0.28     9.41     0  02:12        0.28
  HS02004799           JUNCTION     0.13     0.31     9.52     0  02:10        0.31
  HS02004792           JUNCTION     0.04     0.13     9.65     0  02:10        0.13
  HS02004788           JUNCTION     0.03     0.09     9.99     0  02:11        0.09
  HS02004785           JUNCTION     0.05     0.16    10.07     0  02:10        0.16
  HS02004777           JUNCTION     0.15     0.29    10.09     0  02:10        0.29
  HS02004770           JUNCTION     0.12     0.26    10.09     0  02:10        0.26
  HS02004480           JUNCTION     0.09     0.25     9.49     0  02:11        0.25
  HS02004479           JUNCTION     0.12     0.29     9.49     0  02:11        0.29
  HS02004478           JUNCTION     0.06     0.16     9.39     0  02:12        0.16
  YS02001745           JUNCTION     0.54     0.87     8.38     0  03:33        0.86
  YS02001748           JUNCTION     0.88     1.31     8.39     0  03:33        1.30
  YS02001751           JUNCTION     1.04     1.51     8.39     0  03:35        1.50
  YS02001754           JUNCTION     1.27     1.78     8.39     0  03:34        1.78
  YS02001762           JUNCTION     1.45     2.00     8.40     0  03:16        1.99
  YS02001765           JUNCTION     1.41     1.95     8.40     0  03:16        1.93
  YS02001767           JUNCTION     1.37     1.91     8.40     0  03:16        1.89
  YS02001770           JUNCTION     1.37     1.91     8.40     0  03:16        1.89
  YS02001774           JUNCTION     1.43     1.97     8.39     0  03:16        1.95
  YS02001779           JUNCTION     1.20     1.68     8.37     0  03:13        1.68
  YS02001882           JUNCTION     0.35     0.62     7.34     0  02:36        0.62
  YS02001884           JUNCTION     0.44     0.72     7.34     0  02:36        0.72
  YS02001759           JUNCTION     1.48     2.03     8.39     0  03:40        2.02
  YS02001887           JUNCTION     0.52     0.80     7.34     0  02:37        0.80
  YS02001890           JUNCTION     0.55     0.83     7.33     0  02:44        0.82
  YS02001898           JUNCTION     0.32     0.59     7.32     0  02:44        0.58
  YS02001901           JUNCTION     0.43     0.71     7.32     0  02:43        0.71
  YS02001904           JUNCTION     0.41     0.69     7.32     0  02:41        0.68
  YS02001907           JUNCTION     0.73     1.04     7.33     0  02:33        1.03
  YS02001910           JUNCTION     0.53     0.81     7.32     0  02:36        0.81
  YS02001915           JUNCTION     0.34     0.60     7.31     0  02:41        0.59
  YS02001918           JUNCTION     0.12     0.25     7.31     0  02:41        0.25
  YS02001619           JUNCTION     1.01     1.48     8.41     0  03:14        1.48
  YS02001629           JUNCTION     1.32     1.84     8.39     0  03:16        1.84
  YS02001641           JUNCTION     1.42     1.93     8.37     0  03:15        1.93
  YS02001644           JUNCTION     1.43     1.92     8.35     0  03:15        1.92
  YS02001652           JUNCTION     1.28     2.03     8.63     0  02:48        1.80
  YS02001655           JUNCTION     1.07     2.10     8.95     0  02:48        1.64
  YS02001920           JUNCTION     0.21     0.32     7.33     0  02:42        0.32
  YS02001923           JUNCTION     0.08     0.11     7.37     0  03:01        0.11
  YS02001926           JUNCTION     0.16     0.22     7.67     0  03:01        0.22
  YS02001929           JUNCTION     0.08     0.12     7.81     0  03:01        0.12
  YS02001658           JUNCTION     0.83     1.86     9.01     0  02:55        1.27
  YS02001661           JUNCTION     0.64     1.06     8.46     0  03:17        1.03
  YS02001664           JUNCTION     0.28     0.53     8.46     0  03:16        0.49
  YS02001622           JUNCTION     1.03     1.50     8.40     0  03:14        1.50
  YS02001633           JUNCTION     1.41     1.94     8.39     0  03:15        1.93
  YS02001649           JUNCTION     1.46     2.00     8.39     0  03:35        1.99
  YS02001757           JUNCTION     1.58     2.13     8.39     0  03:33        2.12
  YS02001895           JUNCTION     0.32     0.58     7.33     0  02:36        0.58
  YS02001625           JUNCTION     1.29     1.78     8.38     0  03:12        1.78
  YS02163301           JUNCTION     1.35     1.88     8.40     0  03:15        1.88
  YS02163601           JUNCTION     1.46     1.98     8.38     0  03:17        1.98
  YS02164001           JUNCTION     1.40     1.91     8.37     0  03:17        1.91
  YS02001647           JUNCTION     1.26     1.76     8.37     0  03:16        1.76
  YSB1154              JUNCTION     0.25     0.43     9.49     0  02:11        0.43
  YSB6556              JUNCTION     0.15     0.32     9.49     0  02:11        0.32
  YSB1174              JUNCTION     0.21     0.38     9.49     0  02:11        0.38
  YSB1171              JUNCTION     0.41     0.59     9.49     0  02:11        0.59
  YS02006553           JUNCTION     0.74     1.05     7.33     0  02:48        1.03
  YS02006561           JUNCTION     0.18     0.34     7.00     0  02:37        0.33
  YS02006556           JUNCTION     0.71     1.01     7.32     0  02:43        1.00
  YS02006558           JUNCTION     0.75     1.05     7.32     0  02:34        1.04
  YS02001783           JUNCTION     0.31     0.59     6.73     0  02:37        0.58
  YS02001784           JUNCTION     0.34     0.60     6.66     0  02:37        0.59
  YS02001786           JUNCTION     0.29     0.50     6.53     0  02:37        0.50
  YS02001788           JUNCTION     0.21     0.39     6.37     0  02:39        0.39
  YS02001790           JUNCTION     0.26     0.47     6.12     0  02:38        0.47
  YS02001791           JUNCTION     0.16     0.29     5.76     0  02:43        0.29
  YS02001793           JUNCTION     0.32     1.19     6.03     0  02:42        1.01
  WSC                  OUTFALL      0.28     0.38     1.05     0  02:32        0.38
  JK-storage           STORAGE      4.08     4.89     5.69     0  02:26        4.88
  CC-storage           STORAGE      0.86     1.39     8.39     0  03:32        1.39
  XR-storage           STORAGE      7.41     7.72     5.72     0  02:20        7.72
  
  
  *******************
  Node Inflow Summary
  *******************
  
  -------------------------------------------------------------------------------------------------
                                  Maximum  Maximum                  Lateral       Total        Flow
                                  Lateral    Total  Time of Max      Inflow      Inflow     Balance
                                   Inflow   Inflow   Occurrence      Volume      Volume       Error
  Node                 Type           LPS      LPS  days hr:min    10^6 ltr    10^6 ltr     Percent
  -------------------------------------------------------------------------------------------------
  WS02001211           JUNCTION      7.35   293.96     0  01:55       0.207        7.42       0.513
  WS02001212           JUNCTION      0.00   294.61     0  04:50           0        7.38       0.262
  WS02001213           JUNCTION      0.00   295.68     0  04:50           0        7.36       0.296
  WS02003069           JUNCTION      0.32   867.82     0  02:31     0.00902        12.7       0.179
  WS02003072           JUNCTION      0.00   867.80     0  02:31           0        12.7       0.229
  WS02003073           JUNCTION      1.82   869.66     0  02:32      0.0514        12.7       0.247
  WS02003060           JUNCTION     16.53   867.56     0  02:30       0.466        12.7       0.172
  WS02003066           JUNCTION      0.00   563.64     0  02:28           0        4.95       0.054
  WS02003059           JUNCTION      0.00   297.77     0  04:50           0        7.35       0.516
  WS02003067           JUNCTION      0.00   563.60     0  02:28           0        4.95       0.124
  WS02004401           JUNCTION      0.00   566.53     0  02:24           0        5.11       0.289
  WS02004402           JUNCTION      0.00   565.98     0  02:24           0        5.09       0.285
  WS02004403           JUNCTION      0.00   566.04     0  02:24           0        5.08       0.267
  WS02004404           JUNCTION      0.16   565.81     0  02:24     0.00457        5.07       0.236
  WS02004406           JUNCTION      0.00   566.00     0  02:25           0        5.04       0.518
  WS02004409           JUNCTION      0.00   565.45     0  02:25           0        5.01       0.161
  WS02004410           JUNCTION      0.00   564.36     0  02:27           0        5.01       0.199
  WS02004411           JUNCTION      0.00   564.05     0  02:27           0           5       0.217
  WS02004412           JUNCTION      0.00   563.82     0  02:27           0        4.98       0.255
  WS02004413           JUNCTION      0.00   563.78     0  02:28           0        4.97       0.413
  WS02004405           JUNCTION      0.04   565.73     0  02:25     0.00107        5.06       0.300
  WS02006109           JUNCTION      1.23   559.49     0  02:21      0.0347        5.14       0.233
  WS02006110           JUNCTION      0.00   559.57     0  02:21           0        5.13       0.250
  WS02006111           JUNCTION      0.00   584.42     0  02:22           0        5.11       0.032
  WS02006112           JUNCTION     13.60   573.79     0  02:23      0.0401        5.15       0.386
  WS02006113           JUNCTION      0.00   560.74     0  02:22           0        5.12       0.082
  WS02006115           JUNCTION      0.00   575.64     0  02:23           0        5.13       0.243
  WS02006116           JUNCTION      0.00   566.93     0  02:24           0        5.12       0.227
  WS02006230           JUNCTION     10.28   311.71     0  02:39        0.29        3.87       0.224
  WS02006231           JUNCTION      0.00   299.68     0  02:37           0        3.58      -0.067
  WS02006232           JUNCTION      0.00   299.60     0  02:37           0        3.58       0.192
  WS02006234           JUNCTION      0.00   298.45     0  02:38           0        3.58      -0.051
  WS02006235           JUNCTION      0.00   328.30     0  02:09           0         3.9       0.115
  WS02006238           JUNCTION      0.00   238.24     0  02:09           0       0.808       0.136
  WS02006240           JUNCTION      0.00   129.78     0  02:10           0       0.565       0.348
  WS02006242           JUNCTION      0.00   111.73     0  02:11           0       0.435       0.403
  WS02006243           JUNCTION      0.00    65.75     0  02:11           0       0.333       1.242
  WS02006245           JUNCTION      0.00    64.65     0  02:11           0        0.28       1.279
  WS02006247           JUNCTION      0.00    65.47     0  02:13           0        0.25       0.165
  WS02006248           JUNCTION      0.00    65.51     0  02:13           0       0.234      -0.026
  WS02006249           JUNCTION      0.00    65.45     0  02:13           0       0.231       0.340
  WS02006239           JUNCTION      0.00   141.13     0  02:09           0       0.695       0.041
  WS02006251           JUNCTION      0.08    65.60     0  02:10     0.00217       0.231       0.018
  WS02006252           JUNCTION      0.00     0.00     0  00:00           0           0       0.000 ltr
  WS02006253           JUNCTION      1.94    65.61     0  02:10     0.00517       0.229       0.061
  WS02006256           JUNCTION      0.00   983.00     0  02:16           0        5.16      -0.192
  WS02004138           JUNCTION      0.00   285.00     0  01:54           0        7.24       0.054
  WS02004139           JUNCTION      0.32   285.32     0  06:03     0.00905        7.25       0.498
  WS02004407           JUNCTION      0.00   565.61     0  02:25           0        5.02       0.077
  WS02006228           JUNCTION      0.00   558.28     0  02:21           0        5.12       0.180
  WS02006229           JUNCTION      0.00   561.62     0  02:22           0        5.13       0.220
  WS02006280           JUNCTION      0.00   321.64     0  02:12           0        1.27       0.005
  WS02006284           JUNCTION      0.10   321.62     0  02:12      0.0027        1.28       0.095
  WS02006287           JUNCTION      0.00   321.48     0  02:12           0        1.27       0.056
  WSF200               JUNCTION      0.00   563.68     0  02:28           0        4.94       0.043
  HS02004901           JUNCTION     16.65    16.65     0  02:07      0.0483      0.0484       3.767
  HS02004881           JUNCTION      6.91    63.90     0  02:10       0.021       0.224       0.028
  HS02004876           JUNCTION     11.62    57.42     0  02:12      0.0403       0.203       0.264
  HS02004870           JUNCTION     12.47    46.02     0  02:12      0.0397       0.163       0.065
  HS02004862           JUNCTION     10.72    34.20     0  02:12      0.0455       0.123       0.138
  HS02004856           JUNCTION      9.28    23.56     0  02:12      0.0299      0.0794       1.851
  HS02004852           JUNCTION      0.00    14.75     0  02:12           0      0.0495       0.105
  HS02004848           JUNCTION     22.20    22.20     0  02:14      0.0953      0.0953       0.046
  HS02004842           JUNCTION      0.00     8.07     0  02:23           0      0.0588      28.374
  HS02004837           JUNCTION     26.80    33.74     0  02:11       0.248       0.294       0.267
  HS02004830           JUNCTION      0.15    33.87     0  02:12     0.00423       0.284       0.435
  HS02004824           JUNCTION     25.39    59.05     0  02:15       0.125       0.408       0.132
  HS02004817           JUNCTION      0.60    59.64     0  02:15      0.0169       0.424       4.089
  HS02004807           JUNCTION     23.31    81.32     0  02:13      0.0731       0.481       0.887
  HS02004802           JUNCTION      0.00    81.79     0  02:15           0       0.476       0.859
  HS02004799           JUNCTION     18.20   204.30     0  02:10      0.0592       0.692       0.348
  HS02004792           JUNCTION     79.72   186.33     0  02:10       0.255       0.633       0.064
  HS02004788           JUNCTION     26.55   108.23     0  02:10       0.129       0.379       0.101
  HS02004785           JUNCTION      0.15    81.98     0  02:10     0.00423       0.251       0.191
  HS02004777           JUNCTION      0.03    82.24     0  02:09    0.000846       0.252       2.100
  HS02004770           JUNCTION     67.20    83.09     0  02:08       0.206       0.253       1.239
  HS02004480           JUNCTION      0.00   241.46     0  02:11           0       0.812       0.098
  HS02004479           JUNCTION      0.00    37.82     0  02:12           0       0.133       0.552
  HS02004478           JUNCTION      0.00   321.45     0  02:12           0        1.27       0.047
  YS02001745           JUNCTION    135.37   170.21     0  02:45        1.38        1.38       0.837
  YS02001748           JUNCTION      0.04   294.51     0  02:38     0.00127        1.38       1.701
  YS02001751           JUNCTION      0.01   375.06     0  02:37     0.00031        1.35       1.719
  YS02001754           JUNCTION      0.26   211.79     0  02:40     0.00733        1.33       1.896
  YS02001762           JUNCTION      0.00   208.14     0  02:45           0        1.37       1.579
  YS02001765           JUNCTION      0.00   203.34     0  02:45           0        1.37       1.797
  YS02001767           JUNCTION      0.54   199.13     0  02:45      0.0151        1.39       2.613
  YS02001770           JUNCTION    172.76   188.42     0  02:45        1.58        1.62       1.975
  YS02001774           JUNCTION      0.00   164.47     0  03:40           0       0.248      11.264
  YS02001779           JUNCTION      0.01   165.53     0  03:40    0.000141       0.215       7.643
  YS02001882           JUNCTION      0.00     9.43     0  02:55           0      0.0118      19.180
  YS02001884           JUNCTION      0.00    16.13     0  02:49           0      0.0397      15.588
  YS02001759           JUNCTION    168.58   378.93     0  02:45        1.47        2.78       0.827
  YS02001887           JUNCTION    220.38   228.72     0  02:31        1.72        1.74       0.442
  YS02001890           JUNCTION      0.00   230.90     0  02:31           0        1.71       0.493
  YS02001898           JUNCTION      0.00   233.47     0  02:38           0        1.69       0.154
  YS02001901           JUNCTION      0.00   242.93     0  02:37           0        1.69       0.359
  YS02001904           JUNCTION      0.00   241.00     0  02:37           0        1.69       0.331
  YS02001907           JUNCTION      0.00   439.51     0  02:38           0        3.67       0.618
  YS02001910           JUNCTION      0.00   201.62     0  02:36           0           2       0.542
  YS02001915           JUNCTION    120.82   194.03     0  02:42        1.17           2       0.258
  YS02001918           JUNCTION      0.00    66.81     0  02:43           0       0.832       0.176
  YS02001619           JUNCTION    117.62   117.62     0  02:46        1.16        1.16       1.043
  YS02001629           JUNCTION      0.00   232.98     0  02:41           0        1.08       2.704
  YS02001641           JUNCTION      0.00   296.83     0  02:55           0        2.35       0.909
  YS02001644           JUNCTION    128.70   664.60     0  03:36        1.33        6.27       0.414
  YS02001652           JUNCTION      0.00   228.63     0  02:34           0        1.21       2.048
  YS02001655           JUNCTION      0.15   379.30     0  02:42     0.00434        1.24       1.892
  YS02001920           JUNCTION      2.87    62.32     0  03:01      0.0809       0.835       0.292
  YS02001923           JUNCTION      0.04    59.45     0  03:01     0.00106       0.754       0.053
  YS02001926           JUNCTION      0.05    59.47     0  03:01     0.00147       0.756       0.361
  YS02001929           JUNCTION     59.43    59.43     0  03:01       0.755       0.755       0.052
  YS02001658           JUNCTION      0.00   550.37     0  02:55           0         1.3       1.520
  YS02001661           JUNCTION      0.00   423.57     0  03:13           0        1.35       1.061
  YS02001664           JUNCTION    156.81   309.17     0  03:14        1.27        1.31       0.468
  YS02001622           JUNCTION      0.00   169.61     0  02:38           0        1.15       2.843
  YS02001633           JUNCTION    130.84   293.12     0  02:55        1.37        2.41       1.346
  YS02001649           JUNCTION      0.00   593.25     0  02:34           0        4.65       0.816
  YS02001757           JUNCTION      0.00  1017.82     0  02:40           0        6.12       1.519
  YS02001895           JUNCTION      0.00   235.98     0  02:37           0         1.7       0.247
  YS02001625           JUNCTION      0.00   233.18     0  02:41           0        1.12       3.602
  YS02163301           JUNCTION      0.00   161.72     0  02:55           0        1.07       2.293
  YS02163601           JUNCTION      0.11   294.38     0  02:55      0.0031        2.37       1.277
  YS02164001           JUNCTION      0.00   294.96     0  02:55           0        2.35       0.865
  YS02001647           JUNCTION      0.00   426.43     0  02:55           0        4.04       0.697
  YSB1154              JUNCTION     20.66    20.66     0  02:10      0.0717      0.0729       2.022
  YSB6556              JUNCTION      0.00    20.67     0  02:11           0      0.0737       1.721
  YSB1174              JUNCTION     18.61    18.61     0  02:06      0.0523       0.053       2.484
  YSB1171              JUNCTION      0.00    37.67     0  02:11           0       0.132       5.025
  YS02006553           JUNCTION      0.00   425.65     0  02:36           0        3.66       0.401
  YS02006561           JUNCTION      0.00   648.78     0  02:44           0        5.19      -0.002
  YS02006556           JUNCTION      0.00   424.20     0  02:38           0        3.67       0.289
  YS02006558           JUNCTION    186.84   633.99     0  02:37        1.57        5.21       0.100
  YS02001783           JUNCTION      0.00   619.70     0  02:37           0        5.19       0.036
  YS02001784           JUNCTION      1.06   608.22     0  02:37      0.0299        5.21       0.057
  YS02001786           JUNCTION      0.06   603.20     0  02:37     0.00159        5.21       0.055
  YS02001788           JUNCTION      0.07   602.79     0  02:37       0.002        5.21       0.033
  YS02001790           JUNCTION      0.15   602.85     0  02:38     0.00437        5.21       0.040
  YS02001791           JUNCTION      0.00   601.98     0  02:38           0        5.21       0.019
  YS02001793           JUNCTION      0.00   633.38     0  02:43           0        5.24      -0.108
  WSC                  OUTFALL       0.00   869.70     0  02:32           0        12.7       0.000
  JK-storage           STORAGE       0.00  1059.66     0  02:36           0        5.39       0.117
  CC-storage           STORAGE       0.00  1019.98     0  02:42           0        3.96       1.665
  XR-storage           STORAGE     448.39   448.39     0  02:52         8.5         9.1      -0.002
  
  
  **********************
  Node Surcharge Summary
  **********************
  
  Surcharging occurs when water rises above the top of the highest conduit.
  ---------------------------------------------------------------------
                                               Max. Height   Min. Depth
                                   Hours       Above Crown    Below Rim
  Node                 Type      Surcharged         Meters       Meters
  ---------------------------------------------------------------------
  WS02006109           JUNCTION        0.91          0.179        1.641
  WS02006110           JUNCTION        0.32          0.041        1.809
  WS02006112           JUNCTION        0.46          0.097        1.583
  WS02006232           JUNCTION        0.52          0.097        1.383
  WS02006235           JUNCTION        0.22          0.030        1.260
  WS02006238           JUNCTION        0.27          0.043        1.387
  WS02006256           JUNCTION        5.85          2.050        0.000
  WS02006228           JUNCTION        0.89          0.217        1.983
  YS02001748           JUNCTION        4.74          0.231        0.959
  YS02001751           JUNCTION        5.03          0.512        0.688
  YS02001754           JUNCTION        5.37          0.734        0.416
  YS02001762           JUNCTION        5.58          0.995        0.155
  YS02001765           JUNCTION        5.56          0.951        0.149
  YS02001767           JUNCTION        5.54          0.914        0.116
  YS02001770           JUNCTION        5.53          0.876        0.044
  YS02001774           JUNCTION        5.57          0.969        0.081
  YS02001779           JUNCTION        5.36          0.680        0.000
  YS02001759           JUNCTION        5.59          1.026        0.184
  YS02001907           JUNCTION        0.40          0.029        0.921
  YS02001619           JUNCTION        4.98          0.477        0.133
  YS02001629           JUNCTION        4.99          0.464        0.006
  YS02001641           JUNCTION        5.57          0.934        0.166
  YS02001644           JUNCTION        5.57          0.920        0.000
  YS02001652           JUNCTION        5.40          1.004        0.126
  YS02001655           JUNCTION        5.06          1.102        0.098
  YS02001658           JUNCTION        4.77          0.864        0.436
  YS02001622           JUNCTION        5.03          0.498        0.122
  YS02001633           JUNCTION        5.55          0.918        0.142
  YS02001649           JUNCTION        5.58          1.003        0.047
  YS02001757           JUNCTION        5.64          1.132        0.078
  YS02001625           JUNCTION        5.49          0.780        0.000
  YS02163301           JUNCTION        5.54          0.880        0.150
  YS02163601           JUNCTION        5.58          0.984        0.096
  YS02164001           JUNCTION        5.55          0.913        0.187
  YS02001647           JUNCTION        5.45          0.765        0.135
  YS02006553           JUNCTION        0.65          0.047        1.143
  YS02001793           JUNCTION        0.01          0.194        2.406
  
  
  *********************
  Node Flooding Summary
  *********************
  
  Flooding refers to all water that overflows a node, whether it ponds or not.
  --------------------------------------------------------------------------
                                                             Total   Maximum
                                 Maximum   Time of Max       Flood    Ponded
                        Hours       Rate    Occurrence      Volume     Depth
  Node                 Flooded       LPS   days hr:min    10^6 ltr    Meters
  --------------------------------------------------------------------------
  WS02006256              3.74    750.57      0  02:26       1.807     0.000
  YS02001779              1.23    165.24      0  03:40       0.194     0.000
  YS02001644              4.56    663.87      0  03:36       4.802     0.000
  YS02001625              0.02     17.19      0  03:16       0.001     0.000
  XR-storage              3.73    163.39      0  02:52       1.052     0.000
  
  
  **********************
  Storage Volume Summary
  **********************
  
  --------------------------------------------------------------------------------------------------
                         Average     Avg  Evap Exfil       Maximum     Max    Time of Max    Maximum
                          Volume    Pcnt  Pcnt  Pcnt        Volume    Pcnt     Occurrence    Outflow
  Storage Unit           1000 m3    Full  Loss  Loss       1000 m3    Full    days hr:min        LPS
  --------------------------------------------------------------------------------------------------
  JK-storage               0.205      70     0     0         0.245      84       0  02:26     983.00
  CC-storage               2.403      15     0     0         3.866      25       0  03:32     144.61
  XR-storage               0.889      96     0     0         0.926     100       0  02:20     285.00
  
  
  ***********************
  Outfall Loading Summary
  ***********************
  
  ---------------------------------------------------------------------------------------------------------------------------------
                         Flow       Avg       Max       Total         Total         Total         Total         Total         Total
                         Freq      Flow      Flow      Volume           COD            SS            TN            TP         NH4-N
  Outfall Node           Pcnt       LPS       LPS    10^6 ltr            kg            kg            kg            kg            kg
  ---------------------------------------------------------------------------------------------------------------------------------
  WSC                   99.99    515.84    869.70      12.665      1760.986      2900.156       136.255        16.529        83.829
  ---------------------------------------------------------------------------------------------------------------------------------
  System                99.99    515.84    869.70      12.665      1760.986      2900.156       136.255        16.529        83.829
  
  
  ********************
  Link Flow Summary
  ********************
  
  -----------------------------------------------------------------------------
                                 Maximum  Time of Max   Maximum    Max/    Max/
                                  |Flow|   Occurrence   |Veloc|    Full    Full
  Link                 Type          LPS  days hr:min     m/sec    Flow   Depth
  -----------------------------------------------------------------------------
  WS02003066WSF200     CONDUIT    563.68     0  02:28      2.73    0.10    0.24
  WS02006287WS02006284 CONDUIT    321.52     0  02:12      1.88    0.15    0.27
  WS02006284WS02006280 CONDUIT    321.64     0  02:12      2.12    0.13    0.25
  WS02006280WS02006229 CONDUIT    321.64     0  02:12      3.42    0.07    0.18
  WS02006229WS02006228 CONDUIT    558.28     0  02:21      1.11    1.85    1.00
  WS02006256WS02006235 CONDUIT    287.79     0  07:33      4.18    3.05    1.00
  WS02006253WS02006251 CONDUIT     65.52     0  02:10      0.58    0.20    0.39
  WS02006252WS02006251 CONDUIT      0.00     0  00:00      0.00    0.00    0.00
  WS02006251WS02006249 CONDUIT     65.45     0  02:13      0.63    0.19    0.41
  WS02006249WS02006248 CONDUIT     65.51     0  02:13      0.74    0.36    0.45
  WS02006248WS02006247 CONDUIT     65.47     0  02:13      0.71    0.14    0.52
  WS02006247WS02006245 CONDUIT     64.65     0  02:11      0.67    0.51    0.59
  WS02006245WS02006243 CONDUIT     65.75     0  02:11      0.80    0.19    0.64
  WS02006243WS02006242 CONDUIT     67.22     0  02:12      0.65    0.14    0.78
  WS02006242WS02006240 CONDUIT     80.32     0  04:37      0.70    0.32    0.88
  WS02006240WS02006239 CONDUIT    102.30     0  04:36      0.75    0.32    0.90
  WS02006239WS02006238 CONDUIT    127.96     0  04:36      0.85    0.41    1.00
  WS02006238WS02006235 CONDUIT    203.55     0  02:09      1.16    0.45    1.00
  WS02006235WS02006234 CONDUIT    298.45     0  02:38      1.06    3.15    1.00
  WS02006234WS02006232 CONDUIT    299.60     0  02:37      0.94    0.61    1.00
  WS02006232WS02006231 CONDUIT    299.68     0  02:37      0.86    0.63    0.98
  WS02006231WS02006230 CONDUIT    301.43     0  02:39      1.21    4.57    0.95
  WS02006230WS02006229 CONDUIT    313.81     0  02:38      0.82    6.98    1.00
  WS02006228WS02006109 CONDUIT    558.26     0  02:21      1.11    2.44    1.00
  WS02006116WS02004401 CONDUIT    566.53     0  02:24      0.79    0.78    0.86
  WS02006115WS02006116 CONDUIT    566.93     0  02:24      0.89    0.73    0.79
  WS02006113WS02006111 CONDUIT    584.42     0  02:22      2.50    0.70    0.47
  WS02006112WS02006115 CONDUIT    575.64     0  02:23      0.79    0.34    0.88
  WS02006111WS02006112 CONDUIT    564.87     0  02:23      1.56    0.27    0.68
  WS02006110WS02006113 CONDUIT    560.74     0  02:22      1.32    0.51    0.79
  WS02006109WS02006110 CONDUIT    559.57     0  02:21      1.11    1.08    1.00
  WS02004411WS02004412 CONDUIT    563.82     0  02:27      0.95    0.80    0.71
  WS02004401WS02004402 CONDUIT    565.98     0  02:24      0.77    0.68    0.89
  WS02004413WS02003067 CONDUIT    563.60     0  02:28      1.14    0.24    0.60
  WS02004412WS02004413 CONDUIT    563.78     0  02:28      0.85    0.38    0.79
  WS02004410WS02004411 CONDUIT    564.05     0  02:27      0.96    0.77    0.70
  WS02004409WS02004410 CONDUIT    564.36     0  02:27      0.99    0.73    0.69
  WS02004407WS02004409 CONDUIT    565.45     0  02:25      1.51    0.20    0.49
  WS02004406WS02004407 CONDUIT    565.61     0  02:25      1.07    0.25    0.64
  WS02004405WS02004406 CONDUIT    566.00     0  02:25      0.73    1.12    0.97
  WS02004404WS02004405 CONDUIT    565.69     0  02:25      0.72    5.54    0.98
  WS02004403WS02004404 CONDUIT    565.64     0  02:24      0.74    0.41    0.95
  WS02004402WS02004403 CONDUIT    566.04     0  02:24      0.76    0.81    0.90
  WS02004139WS02001211 CONDUIT    286.62     0  01:55      0.54    0.36    0.54
  WS02004138WS02004139 CONDUIT    285.00     0  06:03      2.39    0.06    0.39
  WS02003067WS02003066 CONDUIT    563.64     0  02:28      1.24    0.18    0.42
  WS02001213WS02003059 CONDUIT    297.77     0  04:50      0.59    0.49    0.73
  WS02001212WS02001213 CONDUIT    295.68     0  04:50      1.19    0.46    0.42
  WS02001211WS02001212 CONDUIT    294.61     0  04:50      0.67    0.23    0.59
  WS02003072WS02003073 CONDUIT    867.84     0  02:32      1.68    1.87    0.47
  WS02003069WS02003072 CONDUIT    867.80     0  02:31      1.58    0.42    0.49
  WS02003060WS02003069 CONDUIT    867.50     0  02:31      1.83    0.34    0.44
  WS02003059WS02003060 CONDUIT    300.84     0  04:49      0.82    0.20    0.63
  HS02004901HS02004770 CONDUIT     16.02     0  02:09      0.06    0.06    0.38
  HS02004876HS02004881 CONDUIT     57.41     0  02:13      0.83    0.61    0.10
  HS02004870HS02004876 CONDUIT     45.99     0  02:12      0.57    0.03    0.12
  HS02004842HS02004848 CONDUIT      8.07     0  02:23      0.04    0.00    0.29
  HS02004837HS02004842 CONDUIT      8.37     0  02:23      0.42    0.00    0.31
  HS02004830HS02004837 CONDUIT     33.72     0  02:12      0.51    0.03    0.09
  HS02004824HS02004830 CONDUIT     33.86     0  02:13      0.55    0.04    0.09
  HS02004817HS02004824 CONDUIT     59.04     0  02:15      0.19    0.03    0.44
  HS02004770HS02004777 CONDUIT     82.21     0  02:09      0.30    0.15    0.39
  HS02004799HS02004480 CONDUIT    204.07     0  02:10      0.74    0.26    0.39
  HS02004792HS02004799 CONDUIT    186.23     0  02:10      0.84    0.11    0.32
  HS02004788HS02004792 CONDUIT    108.16     0  02:11      0.97    0.07    0.16
  HS02004785HS02004788 CONDUIT     81.90     0  02:11      0.63    0.62    0.18
  HS02004777HS02004785 CONDUIT     81.83     0  02:10      0.36    0.10    0.32
  HS02004480HS02004478 CONDUIT    241.47     0  02:11      1.15    1.02    0.30
  HS02004479HS02004480 CONDUIT     38.10     0  02:12      0.18    0.04    0.38
  HS02004862HS02004870 CONDUIT     34.16     0  02:13      0.58    0.04    0.08
  HS02004848HS02004852 CONDUIT     14.75     0  02:12      0.39    0.02    0.05
  HS02004856HS02004862 CONDUIT     23.52     0  02:13      0.43    0.02    0.08
  HS02004852HS02004856 CONDUIT     14.70     0  02:13      0.19    0.02    0.11
  HS02004802HS02004478 CONDUIT     82.38     0  02:15      0.38    0.07    0.32
  HS02004478WS02006287 CONDUIT    321.48     0  02:12      1.58    0.09    0.23
  HS02004817HS02004807 CONDUIT     60.45     0  02:16      0.15    0.04    0.58
  HS02004807HS02004802 CONDUIT     81.79     0  02:15      0.32    0.16    0.37
  YS02001759YS02001757 CONDUIT    381.02     0  02:45      0.49    0.27    1.00
  YS02001762YS02001759 CONDUIT    212.07     0  02:45      0.27    0.24    1.00
  YS02001765YS02001762 CONDUIT    208.14     0  02:45      0.27    0.20    1.00
  YS02001770YS02001767 CONDUIT    198.60     0  02:45      0.29    0.79    1.00
  YS02001774YS02001770 CONDUIT    164.47     0  03:40      0.21    0.11    1.00
  YS02001779YS02001774 CONDUIT    165.53     0  03:40      0.21    0.08    1.00
  YS02001649YS02001757 CONDUIT    594.44     0  02:34      0.76    0.36    1.00
  YS02001767YS02001765 CONDUIT    203.34     0  02:45      0.27    0.26    1.00
  YS02006561YS02001783 CONDUIT    619.70     0  02:37      2.11    0.32    0.57
  YS02001783YS02001784 CONDUIT    607.16     0  02:37      1.55    0.84    0.74
  YS02001784YS02001785 CONDUIT    603.15     0  02:37      1.65    1.40    0.68
  YS02001788YS02001790 CONDUIT    602.69     0  02:38      2.19    0.44    0.54
  YS02001790YS02001791 CONDUIT    601.98     0  02:38      2.60    0.65    0.47
  YS02001791YS02001793 CONDUIT    633.38     0  02:43      4.13    0.27    0.68
  YS02001910YS02001907 CONDUIT    206.47     0  02:37      0.49    0.12    0.91
  YS02001786YS02001788 CONDUIT    602.72     0  02:37      2.10    1.16    0.56
  YS02001915YS02001910 CONDUIT    201.62     0  02:36      0.46    0.10    0.70
  YS02001918YS02001915 CONDUIT     73.26     0  02:42      0.44    0.04    0.42
  YS02001923YS02001920 CONDUIT     59.45     0  03:01      0.56    0.03    0.21
  YS02001926YS02001923 CONDUIT     59.42     0  03:01      0.63    0.08    0.18
  YS02001929YS02001926 CONDUIT     59.42     0  03:01      0.68    0.03    0.17
  YS02001920YS02001918 CONDUIT     66.81     0  02:43      0.56    0.06    0.28
  YS02001629YS02163301 CONDUIT    161.72     0  02:55      0.21    0.20    1.00
  YS02001619YS02001622 CONDUIT    169.61     0  02:38      0.72    0.25    1.00
  YS02001622YS02001625 CONDUIT    233.18     0  02:41      0.30    0.12    1.00
  YS02001625YS02001629 CONDUIT    232.98     0  02:41      0.30    0.11    1.00
  YS02163301YS02001633 CONDUIT    162.60     0  02:55      0.21    0.15    1.00
  YS02163601YS02164001 CONDUIT    294.96     0  02:55      0.38    0.26    1.00
  YS02164001YS02001641 CONDUIT    296.83     0  02:55      0.38    0.41    1.00
  YS02001641YS02001644 CONDUIT    297.86     0  02:55      0.38    0.96    1.00
  YS02001647YS02001649 CONDUIT    428.06     0  02:55      0.55    0.23    1.00
  YS02006553YS02006556 CONDUIT    424.20     0  02:38      0.55    0.36    0.98
  YS02006556YS02006558 CONDUIT    447.25     0  02:37      0.57    0.35    1.00
  YSB6556YSB1171       CONDUIT     20.89     0  02:14      0.08    0.02    0.65
  YS02001907YS02006553 CONDUIT    425.65     0  02:36      0.47    0.50    1.00
  YS02006558YS02006561 CONDUIT    648.78     0  02:44      3.07    1.43    0.72
  YS02001633YS02163601 CONDUIT    294.27     0  02:55      0.37    0.31    1.00
  YS02001644YS02001647 CONDUIT    426.43     0  02:55      0.54    0.25    1.00
  YS02001745YS02001748 CONDUIT    294.46     0  02:38      1.57    0.11    0.93
  YS02001748YS02001751 CONDUIT    375.05     0  02:37      1.18    0.19    1.00
  YS02001751YS02001754 CONDUIT    211.53     0  02:40      0.89    0.10    1.00
  YS02001754YS02001757 CONDUIT    213.03     0  02:40      0.33    0.09    1.00
  YS02001882YS02001884 CONDUIT     13.89     0  02:45      0.08    0.02    0.64
  YS02001884YS02001887 CONDUIT     16.13     0  02:49      0.05    0.02    0.73
  YS02001890YS02001895 CONDUIT    235.98     0  02:37      0.40    0.11    0.70
  YS02001895YS02001898 CONDUIT    233.47     0  02:38      0.52    0.41    0.56
  YS02001898YS02001901 CONDUIT    242.93     0  02:37      0.46    0.16    0.64
  YS02001901YS02001904 CONDUIT    241.00     0  02:37      0.42    0.37    0.70
  YS02001904YS02001907 CONDUIT    251.38     0  02:37      0.36    0.09    0.84
  YS02001887YS02001890 CONDUIT    230.90     0  02:31      0.35    0.40    0.79
  YS02001652YS02001649 CONDUIT    230.96     0  02:34      0.40    0.11    1.00
  YS02001655YS02001652 CONDUIT    228.63     0  02:34      0.93    0.11    1.00
  YS02001658YS02001655 CONDUIT    379.14     0  02:42      1.36    0.16    1.00
  YS02001661YS02001658 CONDUIT    550.37     0  02:55      1.66    0.22    0.99
  YS02001664YS02001661 CONDUIT    423.57     0  03:13      1.45    0.13    0.71
  YSB1154YSB6556       CONDUIT     20.67     0  02:11      0.19    0.04    0.54
  YSB1174YSB1171       CONDUIT     17.81     0  02:08      0.07    0.03    0.66
  YSB1171HS02004479    CONDUIT     37.82     0  02:12      0.54    0.03    0.51
  HS02004881HS02006253 CONDUIT     63.86     0  02:10      2.01    0.01    0.05
  YS02001793JiankangQianchi CONDUIT   1059.66     0  02:36      1.55    0.08    1.00
  YS02001757CaochengTiaoxuchi CONDUIT   1019.98     0  02:42      2.10    0.45    1.00
  WSF200WS02003060     CONDUIT    563.81     0  02:29      1.68    0.13    0.34
  1                    CONDUIT    869.70     0  02:32      3.20    0.30    0.38
  CC-Pump-1            PUMP         0.00     0  00:00              0.00
  CC-Pump-2            PUMP         0.00     0  00:00              0.00
  JK-Pump-1            PUMP       300.00     0  02:08              1.00
  JK-Pump-2            PUMP       683.00     0  02:16              1.00
  XR-Pump-1            PUMP        95.00     0  00:00              1.00
  XR-Pump-2            PUMP        95.00     0  00:25              1.00
  XR-Pump-3            PUMP        95.00     0  01:54              1.00
  XR-Pump-4            PUMP         0.00     0  00:00              0.00
  
  
  ***************************
  Flow Classification Summary
  ***************************
  
  -------------------------------------------------------------------------------------
                      Adjusted    ---------- Fraction of Time in Flow Class ---------- 
                       /Actual         Up    Down  Sub   Sup   Up    Down  Norm  Inlet 
  Conduit               Length    Dry  Dry   Dry   Crit  Crit  Crit  Crit  Ltd   Ctrl  
  -------------------------------------------------------------------------------------
  WS02003066WSF200        1.00   0.20  0.00  0.00  0.00  0.80  0.00  0.00  0.65  0.00
  WS02006287WS02006284    1.00   0.06  0.05  0.00  0.48  0.42  0.00  0.00  0.75  0.00
  WS02006284WS02006280    1.00   0.08  0.00  0.00  0.00  0.00  0.00  0.92  0.00  0.00
  WS02006280WS02006229    1.00   0.08  0.00  0.00  0.00  0.00  0.00  0.92  0.00  0.00
  WS02006229WS02006228    1.00   0.00  0.00  0.00  0.99  0.00  0.00  0.01  0.00  0.00
  WS02006256WS02006235    1.00   0.13  0.00  0.00  0.86  0.01  0.00  0.00  0.02  0.00
  WS02006253WS02006251    1.00   0.03  0.04  0.00  0.92  0.00  0.01  0.00  0.00  0.00
  WS02006252WS02006251    1.00   1.00  0.00  0.00  0.00  0.00  0.00  0.00  0.00  0.00
  WS02006251WS02006249    1.00   0.00  0.00  0.00  1.00  0.00  0.00  0.00  0.84  0.00
  WS02006249WS02006248    1.00   0.00  0.01  0.00  0.56  0.00  0.43  0.00  0.00  0.00
  WS02006248WS02006247    1.00   0.01  0.00  0.00  0.96  0.00  0.00  0.03  0.44  0.00
  WS02006247WS02006245    1.00   0.01  0.00  0.00  0.93  0.00  0.00  0.06  0.00  0.00
  WS02006245WS02006243    1.00   0.02  0.00  0.00  0.87  0.00  0.00  0.11  0.02  0.00
  WS02006243WS02006242    1.00   0.02  0.00  0.00  0.90  0.00  0.00  0.08  0.29  0.00
  WS02006242WS02006240    1.00   0.03  0.08  0.00  0.88  0.00  0.01  0.00  0.00  0.00
  WS02006240WS02006239    1.00   0.11  0.00  0.00  0.81  0.00  0.00  0.08  0.04  0.00
  WS02006239WS02006238    1.00   0.11  0.00  0.00  0.87  0.00  0.00  0.02  0.01  0.00
  WS02006238WS02006235    1.00   0.11  0.02  0.00  0.87  0.00  0.00  0.00  0.00  0.00
  WS02006235WS02006234    1.00   0.14  0.00  0.00  0.81  0.00  0.05  0.00  0.00  0.00
  WS02006234WS02006232    1.00   0.14  0.00  0.00  0.86  0.00  0.00  0.00  0.01  0.00
  WS02006232WS02006231    1.00   0.14  0.02  0.00  0.83  0.00  0.00  0.00  0.01  0.00
  WS02006231WS02006230    1.00   0.16  0.00  0.00  0.35  0.00  0.49  0.00  0.00  0.00
  WS02006230WS02006229    1.00   0.00  0.00  0.00  0.98  0.00  0.00  0.02  0.01  0.00
  WS02006228WS02006109    1.00   0.00  0.00  0.00  1.00  0.00  0.00  0.00  0.01  0.00
  WS02006116WS02004401    1.00   0.06  0.00  0.00  0.94  0.00  0.00  0.00  0.01  0.00
  WS02006115WS02006116    1.00   0.06  0.00  0.00  0.87  0.00  0.00  0.07  0.00  0.00
  WS02006113WS02006111    1.00   0.04  0.00  0.00  0.02  0.95  0.00  0.00  0.30  0.00
  WS02006112WS02006115    1.00   0.04  0.02  0.00  0.93  0.00  0.00  0.00  0.00  0.00
  WS02006111WS02006112    1.00   0.04  0.00  0.00  0.95  0.00  0.00  0.01  0.92  0.00
  WS02006110WS02006113    1.00   0.01  0.03  0.00  0.96  0.00  0.00  0.00  0.00  0.00
  WS02006109WS02006110    1.00   0.00  0.01  0.00  0.99  0.00  0.01  0.00  0.00  0.00
  WS02004411WS02004412    1.00   0.16  0.00  0.00  0.84  0.00  0.00  0.00  0.00  0.00
  WS02004401WS02004402    1.00   0.06  0.00  0.00  0.94  0.00  0.00  0.00  0.04  0.00
  WS02004413WS02003067    1.00   0.17  0.02  0.00  0.00  0.00  0.81  0.00  0.00  0.00
  WS02004412WS02004413    1.00   0.16  0.00  0.00  0.83  0.01  0.00  0.00  0.00  0.00
  WS02004410WS02004411    1.00   0.16  0.00  0.00  0.84  0.00  0.00  0.00  0.00  0.00
  WS02004409WS02004410    1.00   0.16  0.00  0.00  0.84  0.00  0.00  0.00  0.00  0.00
  WS02004407WS02004409    1.00   0.16  0.00  0.00  0.83  0.01  0.00  0.00  0.75  0.00
  WS02004406WS02004407    1.00   0.00  0.16  0.00  0.84  0.00  0.00  0.00  0.00  0.00
  WS02004405WS02004406    1.00   0.00  0.00  0.00  1.00  0.00  0.00  0.00  0.04  0.00
  WS02004404WS02004405    1.00   0.00  0.00  0.00  1.00  0.00  0.00  0.00  0.02  0.00
  WS02004403WS02004404    1.00   0.00  0.07  0.00  0.93  0.00  0.00  0.00  0.04  0.00
  WS02004402WS02004403    1.00   0.07  0.00  0.00  0.93  0.00  0.00  0.00  0.00  0.00
  WS02004139WS02001211    1.00   0.00  0.00  0.00  1.00  0.00  0.00  0.00  0.00  0.00
  WS02004138WS02004139    1.00   0.00  0.00  0.00  0.99  0.00  0.00  0.00  1.00  0.00
  WS02003067WS02003066    1.00   0.19  0.01  0.00  0.80  0.00  0.00  0.00  0.00  0.00
  WS02001213WS02003059    1.00   0.00  0.00  0.00  0.99  0.00  0.00  0.00  0.00  0.00
  WS02001212WS02001213    1.00   0.00  0.00  0.00  0.51  0.00  0.48  0.00  0.00  0.00
  WS02001211WS02001212    1.00   0.00  0.00  0.00  1.00  0.00  0.00  0.00  0.00  0.00
  WS02003072WS02003073    1.00   0.00  0.00  0.00  0.00  0.00  0.00  1.00  0.00  0.00
  WS02003069WS02003072    1.00   0.00  0.00  0.00  1.00  0.00  0.00  0.00  0.29  0.00
  WS02003060WS02003069    1.00   0.00  0.00  0.00  0.99  0.01  0.00  0.00  0.20  0.00
  WS02003059WS02003060    1.00   0.00  0.00  0.00  1.00  0.00  0.00  0.00  0.02  0.00
  HS02004901HS02004770    1.00   0.08  0.00  0.00  0.92  0.00  0.00  0.00  0.01  0.00
  HS02004876HS02004881    1.00   0.01  0.00  0.00  0.96  0.03  0.00  0.00  0.00  0.00
  HS02004870HS02004876    1.00   0.00  0.00  0.00  0.99  0.00  0.00  0.00  0.95  0.00
  HS02004842HS02004848    1.00   0.00  0.08  0.00  0.92  0.00  0.00  0.00  0.63  0.00
  HS02004837HS02004842    1.00   0.00  0.00  0.00  1.00  0.00  0.00  0.00  0.11  0.00
  HS02004830HS02004837    1.00   0.00  0.00  0.00  1.00  0.00  0.00  0.00  0.99  0.00
  HS02004824HS02004830    1.00   0.00  0.00  0.00  1.00  0.00  0.00  0.00  0.00  0.00
  HS02004817HS02004824    1.00   0.00  0.00  0.00  1.00  0.00  0.00  0.00  1.00  0.00
  HS02004770HS02004777    1.00   0.00  0.08  0.00  0.92  0.00  0.00  0.00  0.05  0.00
  HS02004799HS02004480    1.00   0.00  0.02  0.00  0.89  0.00  0.09  0.00  0.00  0.00
  HS02004792HS02004799    1.00   0.00  0.00  0.00  0.99  0.01  0.00  0.00  0.98  0.00
  HS02004788HS02004792    1.00   0.00  0.00  0.00  0.99  0.01  0.00  0.00  0.98  0.00
  HS02004785HS02004788    1.00   0.00  0.00  0.00  1.00  0.00  0.00  0.00  0.00  0.00
  HS02004777HS02004785    1.00   0.00  0.00  0.00  1.00  0.00  0.00  0.00  0.17  0.00
  HS02004480HS02004478    1.00   0.09  0.00  0.00  0.51  0.00  0.00  0.40  0.00  0.00
  HS02004479HS02004480    1.00   0.02  0.00  0.00  0.98  0.00  0.00  0.00  0.14  0.00
  HS02004862HS02004870    1.00   0.00  0.00  0.00  1.00  0.00  0.00  0.00  0.05  0.00
  HS02004848HS02004852    1.00   0.08  0.00  0.00  0.92  0.00  0.00  0.00  0.72  0.00
  HS02004856HS02004862    1.00   0.00  0.13  0.00  0.87  0.00  0.00  0.00  0.78  0.00
  HS02004852HS02004856    1.00   0.08  0.02  0.00  0.91  0.00  0.00  0.00  0.84  0.00
  HS02004802HS02004478    1.00   0.08  0.01  0.00  0.91  0.00  0.00  0.00  0.02  0.00
  HS02004478WS02006287    1.00   0.11  0.00  0.00  0.68  0.22  0.00  0.00  0.73  0.00
  HS02004817HS02004807    1.00   0.00  0.08  0.00  0.92  0.00  0.00  0.00  0.00  0.00
  HS02004807HS02004802    1.00   0.08  0.00  0.00  0.91  0.00  0.00  0.01  0.01  0.00
  YS02001759YS02001757    1.00   0.00  0.00  0.00  1.00  0.00  0.00  0.00  0.18  0.00
  YS02001762YS02001759    1.00   0.00  0.00  0.00  1.00  0.00  0.00  0.00  0.04  0.00
  YS02001765YS02001762    1.00   0.00  0.00  0.00  1.00  0.00  0.00  0.00  0.19  0.00
  YS02001770YS02001767    1.00   0.00  0.00  0.00  1.00  0.00  0.00  0.00  0.00  0.00
  YS02001774YS02001770    1.00   0.00  0.09  0.00  0.91  0.00  0.00  0.00  0.05  0.00
  YS02001779YS02001774    1.00   0.00  0.00  0.00  1.00  0.00  0.00  0.00  0.23  0.00
  YS02001649YS02001757    1.00   0.00  0.00  0.00  1.00  0.00  0.00  0.00  0.18  0.00
  YS02001767YS02001765    1.00   0.00  0.00  0.00  1.00  0.00  0.00  0.00  0.01  0.00
  YS02006561YS02001783    1.00   0.14  0.00  0.00  0.00  0.86  0.00  0.00  0.58  0.00
  YS02001783YS02001784    1.00   0.00  0.14  0.00  0.86  0.00  0.00  0.00  0.01  0.00
  YS02001784YS02001785    1.00   0.00  0.00  0.00  1.00  0.00  0.00  0.00  0.22  0.00
  YS02001788YS02001790    1.00   0.00  0.00  0.00  0.15  0.85  0.00  0.00  0.63  0.00
  YS02001790YS02001791    1.00   0.00  0.00  0.00  0.01  0.99  0.00  0.00  0.69  0.00
  YS02001791YS02001793    1.00   0.00  0.00  0.00  0.33  0.67  0.00  0.00  0.38  0.00
  YS02001910YS02001907    1.00   0.00  0.00  0.00  0.98  0.00  0.00  0.01  0.13  0.00
  YS02001786YS02001788    1.00   0.00  0.00  0.00  0.16  0.84  0.00  0.00  0.00  0.00
  YS02001915YS02001910    1.00   0.00  0.00  0.00  0.99  0.01  0.00  0.00  0.21  0.00
  YS02001918YS02001915    1.00   0.00  0.00  0.00  0.99  0.01  0.00  0.00  0.66  0.00
  YS02001923YS02001920    1.00   0.00  0.00  0.00  1.00  0.00  0.00  0.00  1.00  0.00
  YS02001926YS02001923    1.00   0.00  0.04  0.00  0.00  0.00  0.96  0.00  0.00  0.00
  YS02001929YS02001926    1.00   0.00  0.08  0.00  0.92  0.00  0.00  0.00  0.87  0.00
  YS02001920YS02001918    1.00   0.00  0.00  0.00  1.00  0.00  0.00  0.00  0.00  0.00
  YS02001629YS02163301    1.00   0.11  0.01  0.00  0.88  0.00  0.00  0.00  0.00  0.00
  YS02001619YS02001622    1.00   0.08  0.00  0.00  0.92  0.00  0.00  0.00  0.00  0.00
  YS02001622YS02001625    1.00   0.08  0.00  0.00  0.92  0.00  0.00  0.00  0.10  0.00
  YS02001625YS02001629    1.00   0.08  0.07  0.00  0.82  0.00  0.04  0.00  0.00  0.00
  YS02163301YS02001633    1.00   0.00  0.11  0.00  0.89  0.00  0.00  0.00  0.00  0.00
  YS02163601YS02164001    1.00   0.00  0.05  0.00  0.95  0.00  0.00  0.00  0.00  0.00
  YS02164001YS02001641    1.00   0.00  0.04  0.00  0.95  0.00  0.00  0.00  0.07  0.00
  YS02001641YS02001644    1.00   0.00  0.00  0.00  1.00  0.00  0.00  0.00  0.00  0.00
  YS02001647YS02001649    1.00   0.00  0.14  0.00  0.86  0.00  0.00  0.00  0.01  0.00
  YS02006553YS02006556    1.00   0.01  0.00  0.00  0.99  0.00  0.00  0.00  0.03  0.00
  YS02006556YS02006558    1.00   0.00  0.00  0.00  1.00  0.00  0.00  0.00  0.00  0.00
  YSB6556YSB1171          1.00   0.02  0.05  0.00  0.93  0.00  0.00  0.00  0.00  0.00
  YS02001907YS02006553    1.00   0.00  0.01  0.00  0.99  0.00  0.00  0.00  0.00  0.00
  YS02006558YS02006561    1.00   0.14  0.00  0.00  0.00  0.86  0.00  0.00  0.63  0.00
  YS02001633YS02163601    1.00   0.00  0.00  0.00  1.00  0.00  0.00  0.00  0.18  0.00
  YS02001644YS02001647    1.00   0.00  0.14  0.00  0.86  0.00  0.00  0.00  0.00  0.00
  YS02001745YS02001748    1.00   0.00  0.00  0.00  0.78  0.01  0.00  0.21  0.04  0.00
  YS02001748YS02001751    1.00   0.00  0.00  0.00  0.92  0.08  0.00  0.00  0.16  0.00
  YS02001751YS02001754    1.00   0.00  0.00  0.00  0.84  0.00  0.00  0.16  0.02  0.00
  YS02001754YS02001757    1.00   0.00  0.00  0.00  1.00  0.00  0.00  0.00  0.23  0.00
  YS02001882YS02001884    1.00   0.11  0.01  0.00  0.89  0.00  0.00  0.00  0.00  0.00
  YS02001884YS02001887    1.00   0.04  0.03  0.00  0.93  0.00  0.00  0.00  0.00  0.00
  YS02001890YS02001895    1.00   0.00  0.12  0.00  0.88  0.00  0.00  0.00  0.00  0.00
  YS02001895YS02001898    1.00   0.12  0.00  0.00  0.85  0.00  0.03  0.00  0.00  0.00
  YS02001898YS02001901    1.00   0.12  0.00  0.00  0.88  0.00  0.00  0.00  0.02  0.00
  YS02001901YS02001904    1.00   0.12  0.00  0.00  0.88  0.00  0.00  0.00  0.00  0.00
  YS02001904YS02001907    1.00   0.00  0.12  0.00  0.88  0.00  0.00  0.00  0.00  0.00
  YS02001887YS02001890    1.00   0.00  0.00  0.00  0.98  0.00  0.02  0.00  0.00  0.00
  YS02001652YS02001649    1.00   0.00  0.00  0.00  0.99  0.01  0.00  0.00  0.21  0.00
  YS02001655YS02001652    1.00   0.00  0.00  0.00  0.84  0.00  0.00  0.15  0.02  0.00
  YS02001658YS02001655    1.00   0.00  0.10  0.00  0.82  0.08  0.00  0.00  0.08  0.00
  YS02001661YS02001658    1.00   0.10  0.00  0.00  0.78  0.12  0.00  0.00  0.03  0.00
  YS02001664YS02001661    1.00   0.08  0.00  0.00  0.81  0.12  0.00  0.00  0.25  0.00
  YSB1154YSB6556          1.00   0.07  0.00  0.00  0.93  0.00  0.00  0.00  0.02  0.00
  YSB1174YSB1171          1.00   0.03  0.03  0.00  0.94  0.00  0.00  0.00  0.00  0.00
  YSB1171HS02004479       1.00   0.02  0.00  0.00  0.97  0.00  0.00  0.01  0.12  0.00
  HS02004881HS02006253    1.00   0.03  0.00  0.00  0.00  0.00  0.00  0.97  0.00  0.00
  YS02001793JiankangQianchi    1.00   0.00  0.00  0.00  1.00  0.00  0.00  0.00  0.55  0.00
  YS02001757CaochengTiaoxuchi    1.00   0.00  0.18  0.00  0.82  0.00  0.00  0.00  0.00  0.00
  WSF200WS02003060        1.00   0.00  0.20  0.00  0.80  0.00  0.00  0.00  0.55  0.00
  1                       1.00   0.00  0.00  0.00  0.00  1.00  0.00  0.00  0.35  0.00
  
  
  *************************
  Conduit Surcharge Summary
  *************************
  
  ----------------------------------------------------------------------------
                                                           Hours        Hours 
                         --------- Hours Full --------   Above Full   Capacity
  Conduit                Both Ends  Upstream  Dnstream   Normal Flow   Limited
  ----------------------------------------------------------------------------
  WS02006229WS02006228        0.89      0.93      0.89      1.56         0.89
  WS02006256WS02006235        4.26      4.32      5.82      3.75         0.01
  WS02006239WS02006238        0.01      0.01      0.27      0.01         0.01
  WS02006238WS02006235        0.27      0.27      0.34      0.01         0.01
  WS02006235WS02006234        0.01      0.01      0.22      3.95         0.01
  WS02006234WS02006232        0.17      0.17      0.52      0.01         0.01
  WS02006232WS02006231        0.01      0.01      0.52      0.01         0.01
  WS02006231WS02006230        0.01      0.01      0.01      4.62         0.01
  WS02006230WS02006229        1.10      1.28      1.10      5.23         1.09
  WS02006228WS02006109        0.91      1.00      0.91      2.75         0.91
  WS02006112WS02006115        0.01      0.01      0.46      0.01         0.01
  WS02006111WS02006112        0.01      0.01      1.99      0.01         0.01
  WS02006110WS02006113        0.01      0.01      0.96      0.01         0.01
  WS02006109WS02006110        0.32      0.32      1.00      0.33         0.01
  WS02004405WS02004406        0.01      0.01      0.01      0.40         0.01
  WS02004404WS02004405        0.01      0.01      0.01      4.97         0.01
  WS02003072WS02003073        0.01      0.01      0.01      3.57         0.01
  HS02004480HS02004478        0.01      0.01      0.01      0.08         0.01
  YS02001759YS02001757        5.59      5.59      5.64      0.01         0.01
  YS02001762YS02001759        5.58      5.58      5.59      0.01         0.01
  YS02001765YS02001762        5.56      5.56      5.58      0.01         0.01
  YS02001770YS02001767        5.54      5.54      5.54      0.01         0.60
  YS02001774YS02001770        5.53      5.53      5.57      0.01         0.01
  YS02001779YS02001774        5.36      5.36      5.57      0.01         0.01
  YS02001649YS02001757        5.58      5.58      5.64      0.01         0.01
  YS02001767YS02001765        5.54      5.54      5.56      0.01         0.01
  YS02001784YS02001785        0.01      0.01      0.01      1.16         0.01
  YS02001791YS02001793        0.01      0.01      0.26      0.01         0.01
  YS02001910YS02001907        0.01      0.01      0.40      0.01         0.01
  YS02001786YS02001788        0.01      0.01      0.01      0.75         0.01
  YS02001629YS02163301        5.53      5.53      5.54      0.01         0.01
  YS02001619YS02001622        4.98      4.98      5.03      0.01         0.01
  YS02001622YS02001625        5.03      5.03      5.49      0.01         0.01
  YS02001625YS02001629        4.99      4.99      5.49      0.01         0.01
  YS02163301YS02001633        5.54      5.54      5.56      0.01         0.01
  YS02163601YS02164001        5.55      5.55      5.58      0.01         0.01
  YS02164001YS02001641        5.55      5.55      5.57      0.01         0.01
  YS02001641YS02001644        5.57      5.57      5.57      0.01         0.67
  YS02001647YS02001649        5.45      5.45      5.58      0.01         0.01
  YS02006553YS02006556        0.01      0.01      0.65      0.01         0.01
  YS02006556YS02006558        0.01      0.01      0.74      0.01         0.01
  YS02001907YS02006553        1.20      1.20      1.40      0.01         0.01
  YS02006558YS02006561        0.01      0.01      0.01      1.02         0.01
  YS02001633YS02163601        5.55      5.55      5.58      0.01         0.01
  YS02001644YS02001647        5.45      5.45      5.57      0.01         0.01
  YS02001745YS02001748        0.01      0.01      4.74      0.01         0.01
  YS02001748YS02001751        4.80      4.80      5.03      0.01         0.01
  YS02001751YS02001754        5.03      5.03      5.37      0.01         0.01
  YS02001754YS02001757        5.42      5.42      5.64      0.01         0.01
  YS02001904YS02001907        0.01      0.01      0.67      0.01         0.01
  YS02001652YS02001649        5.47      5.47      5.58      0.01         0.01
  YS02001655YS02001652        5.06      5.06      5.40      0.01         0.01
  YS02001658YS02001655        4.77      4.77      5.06      0.01         0.01
  YS02001661YS02001658        0.01      0.01      4.77      0.01         0.01
  YS02001664YS02001661        0.01      0.01      0.11      0.01         0.01
  YS02001793JiankangQianchi        0.01      0.01      7.82      0.01         0.01
  YS02001757CaochengTiaoxuchi        4.77      4.77      5.64      0.01         0.01
  
  
  ***************
  Pumping Summary
  ***************
  
  ---------------------------------------------------------------------------------------------------------
                                                  Min       Avg       Max     Total     Power    % Time Off
                        Percent   Number of      Flow      Flow      Flow    Volume     Usage    Pump Curve
  Pump                 Utilized   Start-Ups       LPS       LPS       LPS  10^6 ltr     Kw-hr    Low   High
  ---------------------------------------------------------------------------------------------------------
  CC-Pump-1                0.00           0      0.00      0.00      0.00     0.000      0.00    0.0    0.0
  CC-Pump-2                0.00           0      0.00      0.00      0.00     0.000      0.00    0.0    0.0
  JK-Pump-1               47.71          10      0.00    300.00    300.00     4.037     45.37    0.0    0.0
  JK-Pump-2                5.83          30      0.00    683.00    683.00     1.124     11.58    0.0  100.0
  XR-Pump-1              100.00           1      0.00     95.00     95.00     2.679     15.49    0.0    0.0
  XR-Pump-2               94.70           1      0.00     95.00     95.00     2.537     14.07    0.0    0.0
  XR-Pump-3               75.69           1      0.00     95.00     95.00     2.028     10.15    0.0    0.0
  XR-Pump-4                0.00           0      0.00      0.00      0.00     0.000      0.00    0.0    0.0
  
  
  ***************************
  Link Pollutant Load Summary
  ***************************
  
  ------------------------------------------------------------------------------------------
                                 COD            SS            TN            TP         NH4-N
  Link                            kg            kg            kg            kg            kg
  ------------------------------------------------------------------------------------------
  WS02003066WSF200           430.471       757.295        14.262         1.384         7.893
  WS02006287WS02006284       157.594       281.882         7.222         0.792         4.207
  WS02006284WS02006280       158.012       282.558         7.262         0.797         4.231
  WS02006280WS02006229       157.989       282.513         7.260         0.797         4.231
  WS02006229WS02006228       433.685       760.541        14.376         1.392         7.954
  WS02006256WS02006235       256.747       440.816         6.759         0.573         3.557
  WS02006253WS02006251        22.243        42.366         0.535         0.042         0.271
  WS02006252WS02006251         0.000         0.000         0.000         0.000         0.000
  WS02006251WS02006249        22.852        43.382         0.587         0.049         0.303
  WS02006249WS02006248        22.801        43.264         0.586         0.048         0.303
  WS02006248WS02006247        23.271        44.077         0.602         0.050         0.312
  WS02006247WS02006245        24.778        46.514         0.664         0.056         0.347
  WS02006245WS02006243        26.977        50.190         0.735         0.063         0.385
  WS02006243WS02006242        31.424        57.498         0.859         0.073         0.451
  WS02006242WS02006240        39.035        69.779         1.082         0.092         0.570
  WS02006240WS02006239        46.182        81.227         1.315         0.114         0.697
  WS02006239WS02006238        53.747        93.203         1.584         0.140         0.847
  WS02006238WS02006235        58.368       100.453         1.751         0.156         0.941
  WS02006235WS02006234       276.876       479.764         7.198         0.605         3.773
  WS02006234WS02006232       277.094       480.149         7.206         0.606         3.777
  WS02006232WS02006231       276.437       479.062         7.177         0.603         3.761
  WS02006231WS02006230       276.602       479.324         7.184         0.603         3.765
  WS02006230WS02006229       277.216       480.598         7.196         0.604         3.771
  WS02006228WS02006109       432.924       759.394        14.325         1.386         7.923
  WS02006116WS02004401       441.019       773.769        14.905         1.458         8.279
  WS02006115WS02006116       441.879       775.090        14.956         1.464         8.309
  WS02006113WS02006111       439.474       769.964        15.001         1.472         8.348
  WS02006112WS02006115       442.735       776.464        15.011         1.470         8.343
  WS02006111WS02006112       439.304       769.729        14.994         1.471         8.344
  WS02006110WS02006113       439.793       770.481        15.024         1.475         8.362
  WS02006109WS02006110       440.814       772.116        15.101         1.484         8.409
  WS02004411WS02004412       433.208       761.577        14.450         1.407         8.007
  WS02004401WS02004402       439.950       772.070        14.835         1.450         8.237
  WS02004413WS02003067       431.144       758.357        14.297         1.388         7.914
  WS02004412WS02004413       432.190       759.978        14.390         1.400         7.971
  WS02004410WS02004411       433.947       762.730        14.492         1.411         8.032
  WS02004409WS02004410       434.597       763.744        14.533         1.416         8.057
  WS02004407WS02004409       435.141       764.578        14.563         1.419         8.074
  WS02004406WS02004407       435.331       764.843        14.571         1.420         8.079
  WS02004405WS02004406       437.325       767.996        14.723         1.438         8.173
  WS02004404WS02004405       438.277       769.464        14.760         1.442         8.193
  WS02004403WS02004404       437.936       768.900        14.703         1.434         8.157
  WS02004402WS02004403       438.906       770.438        14.768         1.442         8.197
  WS02004139WS02001211      1188.845      1916.598       108.071        13.399        67.219
  WS02004138WS02004139      1194.262      1925.358       108.547        13.458        67.515
  WS02003067WS02003066       430.548       757.407        14.269         1.385         7.897
  WS02001213WS02003059      1223.588      1971.988       111.500        13.829        69.367
  WS02001212WS02001213      1230.636      1983.374       112.126        13.907        69.756
  WS02001211WS02001212      1233.026      1987.212       112.348        13.934        69.895
  WS02003072WS02003073      1754.150      2889.366       135.485        16.431        83.342
  WS02003069WS02003072      1759.191      2897.413       135.962        16.491        83.640
  WS02003060WS02003069      1761.009      2900.339       136.105        16.508        83.728
  WS02003059WS02003060      1220.680      1967.280       111.247        13.798        69.210
  HS02004901HS02004770         4.896         9.139         0.093         0.007         0.043
  HS02004876HS02004881        18.687        35.457         0.472         0.038         0.241
  HS02004870HS02004876        14.202        26.817         0.396         0.033         0.206
  HS02004842HS02004848         2.614         4.751         0.056         0.004         0.026
  HS02004837HS02004842         7.225        12.082         0.524         0.063         0.320
  HS02004830HS02004837        54.049        89.828         4.336         0.530         2.679
  HS02004824HS02004830        54.798        91.028         4.407         0.539         2.723
  HS02004817HS02004824        65.266       110.903         4.648         0.556         2.844
  HS02004770HS02004777        18.753        35.335         0.396         0.026         0.181
  HS02004799HS02004480        70.092       126.840         2.479         0.249         1.370
  HS02004792HS02004799        64.181       115.069         2.417         0.249         1.350
  HS02004788HS02004792        39.440        70.447         1.800         0.194         1.035
  HS02004785HS02004788        20.252        37.744         0.548         0.046         0.277
  HS02004777HS02004785        19.690        36.835         0.498         0.039         0.245
  HS02004480HS02004478        86.900       159.277         2.722         0.264         1.478
  HS02004479HS02004480        20.980        39.077         0.638         0.064         0.354
  HS02004862HS02004870        10.567        19.553         0.324         0.029         0.171
  HS02004848HS02004852         3.540         6.521         0.075         0.005         0.034
  HS02004856HS02004862         6.557        12.487         0.133         0.009         0.062
  HS02004852HS02004856         3.537         6.513         0.075         0.005         0.034
  HS02004802HS02004478        71.031       123.165         4.530         0.532         2.747
  HS02004478WS02006287       157.785       282.203         7.238         0.794         4.217
  HS02004817HS02004807        63.908       108.730         4.519         0.540         2.763
  HS02004807HS02004802        71.633       124.121         4.589         0.539         2.784
  YS02001759YS02001757       191.952       335.185         4.091         0.285         2.021
  YS02001762YS02001759        97.809       172.065         2.277         0.164         1.147
  YS02001765YS02001762        97.400       171.415         2.295         0.167         1.159
  YS02001770YS02001767        95.175       167.854         2.010         0.129         0.977
  YS02001774YS02001770        17.295        30.290         0.372         0.024         0.182
  YS02001779YS02001774        16.648        28.974         0.474         0.040         0.252
  YS02001649YS02001757       268.356       458.661         5.712         0.401         2.775
  YS02001767YS02001765        97.432       171.466         2.311         0.168         1.169
  YS02006561YS02001783       416.077       721.333        10.111         0.816         5.216
  YS02001783YS02001784       415.993       721.214        10.107         0.816         5.214
  YS02001784YS02001785       423.345       732.997        10.820         0.905         5.660
  YS02001788YS02001790       424.009       734.092        10.893         0.915         5.706
  YS02001790YS02001791       424.995       735.685        10.991         0.927         5.767
  YS02001791YS02001793       424.994       735.696        10.995         0.927         5.770
  YS02001910YS02001907       139.495       237.173         4.540         0.407         2.479
  YS02001786YS02001788       423.572       733.378        10.848         0.909         5.678
  YS02001915YS02001910       139.404       236.985         4.491         0.400         2.446
  YS02001918YS02001915        68.882       111.913         2.954         0.314         1.711
  YS02001923YS02001920        48.920        80.004         1.007         0.070         0.494
  YS02001926YS02001923        48.566        79.438         0.969         0.065         0.469
  YS02001929YS02001926        48.314        79.023         0.938         0.061         0.449
  YS02001920YS02001918        68.839       111.879         2.926         0.310         1.693
  YS02001629YS02163301        54.830        92.947         1.189         0.075         0.552
  YS02001619YS02001622        57.753        97.474         1.258         0.079         0.582
  YS02001622YS02001625        56.726        95.904         1.233         0.077         0.571
  YS02001625YS02001629        55.636        94.289         1.206         0.076         0.559
  YS02163301YS02001633        55.540        94.195         1.201         0.076         0.558
  YS02163601YS02164001       152.807       257.392         3.194         0.224         1.533
  YS02164001YS02001641       152.439       256.798         3.174         0.222         1.521
  YS02001641YS02001644       153.301       258.223         3.183         0.223         1.525
  YS02001647YS02001649       252.927       429.093         5.395         0.376         2.620
  YS02006553YS02006556       300.532       519.200         7.634         0.641         4.002
  YS02006556YS02006558       300.393       518.943         7.602         0.636         3.981
  YSB6556YSB1171              11.411        21.433         0.278         0.026         0.148
  YS02001907YS02006553       300.549       519.246         7.633         0.641         4.002
  YS02006558YS02006561       415.968       721.123        10.107         0.816         5.214
  YS02001633YS02163601       153.453       258.359         3.176         0.221         1.518
  YS02001644YS02001647       255.995       434.662         5.440         0.379         2.640
  YS02001745YS02001748        81.155       140.641         1.762         0.109         0.854
  YS02001748YS02001751        81.657       141.454         1.873         0.124         0.927
  YS02001751YS02001754        81.154       140.524         1.942         0.135         0.975
  YS02001754YS02001757        82.002       141.841         2.110         0.158         1.084
  YS02001882YS02001884         1.632         2.738         0.038         0.003         0.019
  YS02001884YS02001887         4.594         7.905         0.100         0.008         0.051
  YS02001890YS02001895       162.239       283.772         3.123         0.236         1.539
  YS02001895YS02001898       162.093       283.567         3.117         0.236         1.535
  YS02001898YS02001901       161.969       283.391         3.114         0.235         1.533
  YS02001901YS02001904       161.976       283.438         3.131         0.238         1.545
  YS02001904YS02001907       162.570       284.437         3.209         0.248         1.594
  YS02001887YS02001890       163.084       285.074         3.184         0.244         1.576
  YS02001652YS02001649        63.883       109.473         1.427         0.104         0.673
  YS02001655YS02001652        64.916       111.117         1.454         0.106         0.686
  YS02001658YS02001655        64.465       110.343         1.353         0.092         0.620
  YS02001661YS02001658        71.769       123.109         1.504         0.103         0.689
  YS02001664YS02001661        73.335       125.378         1.543         0.105         0.707
  YSB1154YSB6556              10.921        20.651         0.218         0.018         0.110
  YSB1174YSB1171               7.758        14.729         0.189         0.017         0.100
  YSB1171HS02004479           20.906        38.968         0.631         0.063         0.350
  HS02004881HS02006253        21.089        40.165         0.516         0.041         0.262
  YS02001793JiankangQianchi       428.279       741.305        11.074         0.934         5.810
  YS02001757CaochengTiaoxuchi       317.350       559.366         6.558         0.465         3.191
  WSF200WS02003060           430.056       756.639        14.242         1.382         7.881
  1                         1760.986      2900.156       136.255        16.529        83.829
  CC-Pump-1                    0.000         0.000         0.000         0.000         0.000
  CC-Pump-2                    0.000         0.000         0.000         0.000         0.000
  JK-Pump-1                  309.712       532.256         8.116         0.686         4.267
  JK-Pump-2                  104.246       186.592         2.370         0.188         1.209
  XR-Pump-1                  431.183       694.752        39.353         4.882        24.486
  XR-Pump-2                  424.142       683.487        38.677         4.798        24.064
  XR-Pump-3                  341.441       551.166        30.738         3.805        19.102
  XR-Pump-4                    0.000         0.000         0.000         0.000         0.000
  

  Analysis begun on:  Sun Jul 11 12:07:41 2021
  Analysis ended on:  Sun Jul 11 12:07:43 2021
  Total elapsed time: 00:00:02