
  EPA STORM WATER MANAGEMENT MODEL - VERSION 5.1 (Build 5.3.0.dev0)
  --------------------------------------------------------------

  WARNING 04: minimum elevation drop used for Conduit WS02004404WS02004405
  WARNING 03: negative offset ignored for Link YS02001904YS02001907
  
  *********************************************************
  NOTE: The summary statistics displayed in this report are
  based on results found at every computational time step,  
  not just on results from each reporting time step.
  *********************************************************
  
  ****************
  Analysis Options
  ****************
  Flow Units ............... LPS
  Process Models:
    Rainfall/Runoff ........ YES
    RDII ................... NO
    Snowmelt ............... NO
    Groundwater ............ NO
    Flow Routing ........... YES
    Ponding Allowed ........ NO
    Water Quality .......... YES
  Infiltration Method ...... HORTON
  Flow Routing Method ...... DYNWAVE
  Surcharge Method ......... EXTRAN
  Starting Date ............ 08/28/2015 08:00:00
  Ending Date .............. 08/28/2015 15:50:00
  Antecedent Dry Days ...... 8.0
  Report Time Step ......... 00:01:00
  Wet Time Step ............ 00:01:00
  Dry Time Step ............ 00:01:00
  Routing Time Step ........ 5.00 sec
  Variable Time Step ....... YES
  Maximum Trials ........... 8
  Number of Threads ........ 4
  Head Tolerance ........... 0.001500 m
  
  
  **************************        Volume         Depth
  Runoff Quantity Continuity     hectare-m            mm
  **************************     ---------       -------
  Total Precipitation ......         1.913         4.188
  Evaporation Loss .........         0.000         0.000
  Infiltration Loss ........         0.449         0.984
  Surface Runoff ...........         1.036         2.269
  Final Storage ............         0.428         0.936
  Continuity Error (%) .....        -0.023
  
  
  **************************           COD            SS            TN            TP         NH4-N
  Runoff Quality Continuity             kg            kg            kg            kg            kg
  **************************    ----------    ----------    ----------    ----------    ----------
  Initial Buildup ..........     41378.656     70582.865      1804.177       168.684      1032.807
  Surface Buildup ..........        13.718        15.683         3.118         0.289         1.849
  Wet Deposition ...........         0.000         0.000         0.000         0.000         0.000
  Sweeping Removal .........         0.000         0.000         0.000         0.000         0.000
  Infiltration Loss ........        16.967        28.636         0.350         0.023         0.163
  BMP Removal ..............         0.000         0.000         0.000         0.000         0.000
  Surface Runoff ...........       522.815       859.066        10.898         0.693         5.121
  Remaining Buildup ........     40852.427     69710.580      1796.043       168.256      1029.371
  Continuity Error (%) .....         0.000         0.000         0.000         0.000         0.000
  
  
  **************************        Volume        Volume
  Flow Routing Continuity        hectare-m      10^6 ltr
  **************************     ---------     ---------
  Dry Weather Inflow .......         0.616         6.165
  Wet Weather Inflow .......         1.036        10.357
  Groundwater Inflow .......         0.000         0.000
  RDII Inflow ..............         0.000         0.000
  External Inflow ..........         0.102         1.024
  External Outflow .........         1.321        13.210
  Flooding Loss ............         0.130         1.297
  Evaporation Loss .........         0.000         0.000
  Exfiltration Loss ........         0.000         0.000
  Initial Stored Volume ....         0.076         0.761
  Final Stored Volume ......         0.452         4.518
  Continuity Error (%) .....        -3.928
  
  
  **************************           COD            SS            TN            TP         NH4-N
  Quality Routing Continuity            kg            kg            kg            kg            kg
  **************************    ----------    ----------    ----------    ----------    ----------
  Dry Weather Inflow .......      1541.201      2465.922       147.955        18.494        92.472
  Wet Weather Inflow .......       522.632       858.792        10.894         0.693         5.119
  Groundwater Inflow .......         0.000         0.000         0.000         0.000         0.000
  RDII Inflow ..............         0.000         0.000         0.000         0.000         0.000
  External Inflow ..........       183.418       293.469        17.608         2.201        11.005
  External Outflow .........      1744.889      2814.348       148.587        18.260        92.048
  Flooding Loss ............        64.471       105.545         2.057         0.190         1.124
  Exfiltration Loss ........         0.000         0.000         0.000         0.000         0.000
  Mass Reacted .............         0.000         0.000         0.000         0.000         0.000
  Initial Stored Mass ......         0.000         0.000         0.000         0.000         0.000
  Final Stored Mass ........       341.505       543.709        20.313         2.315        12.141
  Continuity Error (%) .....         4.289         4.272         3.117         2.911         3.023
  
  
  *************************
  Highest Continuity Errors
  *************************
  Node YS02001774 (30.53%)
  Node HS02004842 (29.84%)
  Node YS02001884 (24.31%)
  Node JK-storage (-20.40%)
  Node YSB1171 (7.61%)
  
  
  ***************************
  Time-Step Critical Elements
  ***************************
  Link WS02006252WS02006251 (49.09%)
  Link WS02006280WS02006229 (16.00%)
  Link YS02001793JiankangQianchi (11.74%)
  Link WS02006238WS02006235 (7.71%)
  Link YS02001791YS02001793 (3.05%)
  
  
  ********************************
  Highest Flow Instability Indexes
  ********************************
  Link WS02006113WS02006111 (51)
  Link WS02006111WS02006112 (21)
  Link YS02001765YS02001762 (11)
  Link YS02164001YS02001641 (11)
  Link YS02001641YS02001644 (11)
  
  
  *************************
  Routing Time Step Summary
  *************************
  Minimum Time Step           :     0.42 sec
  Average Time Step           :     1.81 sec
  Maximum Time Step           :     5.00 sec
  Percent in Steady State     :    -0.00
  Average Iterations per Step :     2.68
  Percent Not Converging      :     3.85
  
  
  ***************************
  Subcatchment Runoff Summary
  ***************************
  
  ------------------------------------------------------------------------------------------------------------------------------
                            Total      Total      Total      Total     Imperv       Perv      Total       Total     Peak  Runoff
                           Precip      Runon       Evap      Infil     Runoff     Runoff     Runoff      Runoff   Runoff   Coeff
  Subcatchment                 mm         mm         mm         mm         mm         mm         mm    10^6 ltr      LPS
  ------------------------------------------------------------------------------------------------------------------------------
  sub0                       4.19       0.00       0.00       0.29       3.85       0.00       3.85        0.00     1.33   0.919
  sub1                       4.19       0.00       0.00       0.46       3.64       0.00       3.64        0.02     7.22   0.870
  sub2                       4.19       0.00       0.00       1.55       2.56       0.00       2.56        0.02     6.37   0.612
  sub3                       4.19       0.00       0.00       1.55       2.53       0.00       2.53        0.06    12.99   0.604
  sub4                       4.19       0.00       0.00       0.46       3.51       0.00       3.51        0.07    14.39   0.838
  sub5                       4.19       0.00       0.00       0.29       3.81       0.00       3.81        0.04    12.84   0.909
  sub7                       4.19       0.00       0.00       0.38       3.75       0.00       3.75        0.01     4.50   0.896
  sub8                       4.19       0.00       0.00       0.38       3.74       0.00       3.74        0.02     7.98   0.894
  sub9                       4.19       0.00       0.00       0.38       3.74       0.00       3.74        0.02     5.91   0.893
  sub10                      4.19       0.00       0.00       0.34       3.77       0.00       3.77        0.04    12.82   0.900
  sub11                      4.19       0.00       0.00       0.34       3.79       0.00       3.79        0.04    14.99   0.904
  sub12                      4.19       0.00       0.00       0.54       3.60       0.00       3.60        0.03    12.46   0.859
  sub14                      4.19       0.00       0.00       0.38       3.74       0.00       3.74        0.04    11.56   0.893
  sub15                      4.19       0.00       0.00       1.26       2.87       0.00       2.87        0.05    15.70   0.686
  sub16                      4.19       0.00       0.00       1.38       2.77       0.00       2.77        0.03    11.02   0.661
  sub17                      4.19       0.00       0.00       1.34       2.81       0.00       2.81        0.02     8.94   0.670
  sub22                      4.19       0.00       0.00       1.80       2.35       0.00       2.35        0.15    51.22   0.560
  sub23                      4.19       0.00       0.00       1.55       2.60       0.00       2.60        0.12    43.53   0.620
  sub60                      4.19       0.00       0.00       0.50       2.48       0.00       2.48        0.75    65.49   0.592
  sub61                      4.19       0.00       0.00       0.71       2.67       0.00       2.67        0.82    84.58   0.637
  sub62                      4.19       0.00       0.00       0.34       2.86       0.00       2.86        0.88    85.70   0.682
  sub63                      4.19       0.00       0.00       1.21       2.38       0.00       2.38        0.72    79.88   0.569
  sub64                      4.19       0.00       0.00       0.63       2.37       0.00       2.37        0.72    62.08   0.566
  sub65                      4.19       0.00       0.00       0.54       2.40       0.00       2.40        0.74    62.87   0.572
  sub66                      4.19       0.00       0.00       1.21       2.07       0.00       2.07        0.64    57.40   0.495
  sub67                      4.19       0.00       0.00       0.34       3.16       0.00       3.16        0.97   113.07   0.754
  sub68                      4.19       0.00       0.00       0.59       2.84       0.00       2.84        0.87    94.23   0.679
  sub69                      4.19       0.00       0.00       0.63       3.08       0.00       3.08        0.72    96.56   0.736
  sub70                      4.19       3.15       0.00       2.49       3.75       0.00       3.75        0.86    72.56   0.511
  sub71                      4.19       0.00       0.00       0.34       2.73       0.00       2.73        0.64    59.20   0.651
  sub72                      4.19       0.00       0.00       0.29       1.90       0.00       1.90        0.39    27.24   0.453
  1                          4.19       3.65       0.00       1.31       3.79       0.43       4.22        0.99    67.68   0.538
  2                          4.19       0.00       0.00       2.88       0.93       0.13       1.06        0.42    58.83   0.252
  
  
  ****************************
  Subcatchment Washoff Summary
  ****************************
  
  ------------------------------------------------------------------------------------------
                                 COD            SS            TN            TP         NH4-N
  Subcatchment                    kg            kg            kg            kg            kg
  ------------------------------------------------------------------------------------------
  sub0                         0.561         1.026         0.009         0.001         0.004
  sub1                         2.221         4.080         0.042         0.003         0.020
  sub2                         1.261         2.224         0.029         0.002         0.013
  sub3                         3.001         5.203         0.068         0.004         0.031
  sub4                         4.752         8.592         0.100         0.006         0.048
  sub5                         5.082         9.216         0.089         0.007         0.043
  sub7                         1.204         2.267         0.023         0.001         0.011
  sub8                         1.821         3.489         0.038         0.002         0.018
  sub9                         1.532         2.895         0.030         0.002         0.015
  sub10                        4.257         7.834         0.078         0.005         0.038
  sub11                        4.290         8.030         0.081         0.005         0.039
  sub12                        3.618         6.683         0.065         0.005         0.031
  sub14                        3.235         6.055         0.062         0.004         0.030
  sub15                        3.742         6.662         0.075         0.005         0.035
  sub16                        2.419         4.330         0.047         0.003         0.022
  sub17                        2.201         3.900         0.041         0.003         0.019
  sub22                       11.057        19.293         0.219         0.016         0.100
  sub23                        6.921        12.554         0.158         0.010         0.071
  sub60                       33.383        54.227         0.736         0.041         0.351
  sub61                       42.819        69.429         0.852         0.054         0.408
  sub62                       45.319        74.842         0.965         0.056         0.460
  sub63                       32.462        52.108         0.728         0.048         0.329
  sub64                       38.888        60.749         0.765         0.052         0.361
  sub65                       39.882        62.574         0.792         0.053         0.375
  sub66                       24.041        38.070         0.561         0.034         0.257
  sub67                       68.381       112.268         1.264         0.088         0.607
  sub68                       48.641        79.930         1.005         0.063         0.476
  sub69                       46.484        77.822         0.923         0.061         0.437
  sub70                       67.982       113.503         1.481         0.096         0.679
  sub71                       30.039        49.978         0.688         0.036         0.327
  sub72                       18.262        27.931         0.371         0.023         0.177
  1                           32.125        54.071         0.730         0.048         0.329
  2                            5.396         8.557         0.186         0.011         0.077
  ------------------------------------------------------------------------------------------
  System                     637.281      1050.391        13.302         0.850         6.237
  
  
  ******************
  Node Depth Summary
  ******************
  
  ---------------------------------------------------------------------------------
                                 Average  Maximum  Maximum  Time of Max    Reported
                                   Depth    Depth      HGL   Occurrence   Max Depth
  Node                 Type       Meters   Meters   Meters  days hr:min      Meters
  ---------------------------------------------------------------------------------
  WS02001211           JUNCTION     0.69     0.79     5.63     0  05:13        0.79
  WS02001212           JUNCTION     0.41     0.51     5.57     0  05:12        0.51
  WS02001213           JUNCTION     0.64     0.76     5.52     0  05:10        0.76
  WS02003069           JUNCTION     0.43     0.58     5.17     0  05:10        0.58
  WS02003072           JUNCTION     0.50     0.64     5.01     0  05:10        0.64
  WS02003073           JUNCTION     0.30     0.39     4.46     0  05:11        0.39
  WS02003060           JUNCTION     0.39     0.52     5.45     0  05:09        0.52
  WS02003066           JUNCTION     0.21     0.30     5.85     0  05:08        0.30
  WS02003059           JUNCTION     0.69     0.81     5.50     0  05:11        0.81
  WS02003067           JUNCTION     0.53     0.70     6.02     0  05:08        0.70
  WS02004401           JUNCTION     0.62     0.86     6.86     0  05:05        0.86
  WS02004402           JUNCTION     0.65     0.88     6.84     0  05:06        0.88
  WS02004403           JUNCTION     0.67     0.90     6.83     0  05:06        0.90
  WS02004404           JUNCTION     0.75     0.97     6.82     0  05:06        0.97
  WS02004406           JUNCTION     0.75     0.96     6.79     0  05:06        0.96
  WS02004409           JUNCTION     0.43     0.67     6.44     0  05:07        0.67
  WS02004410           JUNCTION     0.45     0.69     6.41     0  05:07        0.69
  WS02004411           JUNCTION     0.47     0.69     6.37     0  05:07        0.69
  WS02004412           JUNCTION     0.49     0.70     6.34     0  05:07        0.70
  WS02004413           JUNCTION     0.65     0.86     6.33     0  05:08        0.86
  WS02004405           JUNCTION     0.74     0.96     6.81     0  05:06        0.96
  WS02006109           JUNCTION     0.68     1.00     7.61     0  04:54        0.98
  WS02006110           JUNCTION     0.68     0.93     7.52     0  04:54        0.93
  WS02006111           JUNCTION     0.19     0.29     7.00     0  05:05        0.29
  WS02006112           JUNCTION     0.78     1.07     6.95     0  05:05        1.05
  WS02006113           JUNCTION     0.29     0.46     7.35     0  04:55        0.46
  WS02006115           JUNCTION     0.50     0.76     6.90     0  05:05        0.76
  WS02006116           JUNCTION     0.59     0.84     6.88     0  05:05        0.84
  WS02006230           JUNCTION     0.64     1.13     7.87     0  04:53        1.13
  WS02006231           JUNCTION     0.42     0.87     7.99     0  04:53        0.87
  WS02006232           JUNCTION     0.55     1.06     8.10     0  04:54        1.06
  WS02006234           JUNCTION     0.47     1.08     8.24     0  04:54        1.07
  WS02006235           JUNCTION     0.51     1.17     8.33     0  04:54        1.15
  WS02006238           JUNCTION     0.53     1.20     8.34     0  04:54        1.18
  WS02006240           JUNCTION     0.44     1.14     8.43     0  04:54        1.13
  WS02006242           JUNCTION     0.49     1.22     8.49     0  04:54        1.21
  WS02006243           JUNCTION     0.38     1.13     8.55     0  04:54        1.12
  WS02006245           JUNCTION     0.36     1.19     8.68     0  04:51        1.10
  WS02006247           JUNCTION     0.38     1.27     8.77     0  04:51        1.12
  WS02006248           JUNCTION     0.33     1.08     8.67     0  04:53        1.07
  WS02006249           JUNCTION     0.35     1.09     8.69     0  04:53        1.09
  WS02006239           JUNCTION     0.49     1.18     8.39     0  04:54        1.16
  WS02006251           JUNCTION     0.33     1.28     8.95     0  04:53        1.12
  WS02006252           JUNCTION     0.24     0.84     9.08     0  04:53        0.67
  WS02006253           JUNCTION     0.36     1.35     8.99     0  04:53        1.14
  WS02006256           JUNCTION     1.26     2.35     9.28     0  00:18        2.35
  WS02004138           JUNCTION     0.15     0.20     7.45     0  00:00        0.19
  WS02004139           JUNCTION     0.63     0.74     5.65     0  05:12        0.74
  WS02004407           JUNCTION     0.19     0.30     6.61     0  05:06        0.30
  WS02006228           JUNCTION     0.67     1.04     7.69     0  04:54        1.03
  WS02006229           JUNCTION     0.65     1.03     7.73     0  04:54        1.03
  WS02006280           JUNCTION     0.05     0.14     8.41     0  02:13        0.14
  WS02006284           JUNCTION     0.34     0.48     8.88     0  02:13        0.48
  WS02006287           JUNCTION     0.07     0.21     9.16     0  02:13        0.21
  WSF200               JUNCTION     0.19     0.31     5.54     0  05:08        0.31
  HS02004901           JUNCTION     0.10     0.23    10.05     0  02:11        0.23
  HS02004881           JUNCTION     0.00     0.02     9.05     0  02:13        0.02
  HS02004876           JUNCTION     0.03     0.10     9.13     0  02:11        0.10
  HS02004870           JUNCTION     0.01     0.04     9.33     0  02:13        0.04
  HS02004862           JUNCTION     0.01     0.05     9.43     0  02:14        0.05
  HS02004856           JUNCTION     0.07     0.10     9.53     0  02:13        0.10
  HS02004852           JUNCTION     0.00     0.03     9.54     0  02:14        0.03
  HS02004848           JUNCTION     0.00     0.03     9.63     0  02:12        0.03
  HS02004842           JUNCTION     0.33     0.36     9.63     0  02:12        0.36
  HS02004837           JUNCTION     0.02     0.05     9.63     0  02:12        0.05
  HS02004830           JUNCTION     0.03     0.06     9.53     0  02:12        0.06
  HS02004824           JUNCTION     0.02     0.04     9.44     0  02:14        0.04
  HS02004817           JUNCTION     0.41     0.52     9.37     0  02:14        0.52
  HS02004807           JUNCTION     0.10     0.20     9.37     0  02:13        0.20
  HS02004802           JUNCTION     0.14     0.23     9.36     0  02:13        0.23
  HS02004799           JUNCTION     0.09     0.25     9.46     0  02:12        0.25
  HS02004792           JUNCTION     0.02     0.09     9.62     0  02:11        0.09
  HS02004788           JUNCTION     0.02     0.07     9.97     0  02:12        0.07
  HS02004785           JUNCTION     0.03     0.13    10.03     0  02:12        0.13
  HS02004777           JUNCTION     0.12     0.25    10.05     0  02:11        0.25
  HS02004770           JUNCTION     0.09     0.22    10.05     0  02:11        0.22
  HS02004480           JUNCTION     0.05     0.19     9.44     0  02:12        0.19
  HS02004479           JUNCTION     0.09     0.23     9.44     0  02:12        0.23
  HS02004478           JUNCTION     0.04     0.12     9.35     0  02:13        0.12
  YS02001745           JUNCTION     0.30     0.53     8.05     0  04:46        0.53
  YS02001748           JUNCTION     0.66     0.97     8.05     0  04:45        0.97
  YS02001751           JUNCTION     0.83     1.17     8.05     0  04:46        1.17
  YS02001754           JUNCTION     1.07     1.44     8.05     0  04:42        1.44
  YS02001762           JUNCTION     1.25     1.65     8.05     0  04:41        1.65
  YS02001765           JUNCTION     1.21     1.60     8.05     0  04:42        1.60
  YS02001767           JUNCTION     1.17     1.56     8.05     0  04:41        1.56
  YS02001770           JUNCTION     1.17     1.55     8.05     0  04:46        1.55
  YS02001774           JUNCTION     1.23     1.63     8.05     0  04:41        1.63
  YS02001779           JUNCTION     0.99     1.37     8.05     0  04:42        1.36
  YS02001882           JUNCTION     0.24     0.43     7.14     0  02:39        0.43
  YS02001884           JUNCTION     0.34     0.53     7.14     0  02:40        0.53
  YS02001759           JUNCTION     1.29     1.69     8.05     0  04:42        1.68
  YS02001887           JUNCTION     0.41     0.60     7.14     0  02:40        0.60
  YS02001890           JUNCTION     0.44     0.64     7.14     0  02:39        0.64
  YS02001898           JUNCTION     0.22     0.39     7.12     0  02:40        0.39
  YS02001901           JUNCTION     0.33     0.52     7.12     0  02:40        0.52
  YS02001904           JUNCTION     0.31     0.49     7.12     0  02:40        0.49
  YS02001907           JUNCTION     0.64     0.83     7.12     0  02:41        0.83
  YS02001910           JUNCTION     0.43     0.62     7.12     0  02:41        0.62
  YS02001915           JUNCTION     0.23     0.40     7.12     0  02:40        0.40
  YS02001918           JUNCTION     0.07     0.09     7.16     0  03:02        0.09
  YS02001619           JUNCTION     0.79     1.13     8.06     0  04:46        1.13
  YS02001629           JUNCTION     1.12     1.51     8.05     0  04:46        1.50
  YS02001641           JUNCTION     1.22     1.62     8.06     0  04:42        1.61
  YS02001644           JUNCTION     1.23     1.62     8.05     0  04:42        1.62
  YS02001652           JUNCTION     1.08     1.46     8.05     0  04:42        1.45
  YS02001655           JUNCTION     0.85     1.20     8.05     0  04:46        1.20
  YS02001920           JUNCTION     0.16     0.19     7.20     0  03:02        0.19
  YS02001923           JUNCTION     0.06     0.08     7.34     0  03:01        0.08
  YS02001926           JUNCTION     0.13     0.17     7.61     0  03:01        0.17
  YS02001929           JUNCTION     0.06     0.08     7.77     0  03:01        0.08
  YS02001658           JUNCTION     0.60     0.91     8.05     0  04:46        0.91
  YS02001661           JUNCTION     0.40     0.65     8.05     0  04:46        0.64
  YS02001664           JUNCTION     0.06     0.13     8.05     0  04:47        0.13
  YS02001622           JUNCTION     0.81     1.15     8.06     0  04:46        1.15
  YS02001633           JUNCTION     1.21     1.61     8.06     0  04:42        1.60
  YS02001649           JUNCTION     1.26     1.66     8.05     0  04:42        1.66
  YS02001757           JUNCTION     1.39     1.79     8.05     0  04:40        1.79
  YS02001895           JUNCTION     0.21     0.39     7.13     0  02:40        0.39
  YS02001625           JUNCTION     1.08     1.45     8.06     0  04:41        1.45
  YS02163301           JUNCTION     1.15     1.54     8.06     0  04:41        1.53
  YS02163601           JUNCTION     1.26     1.66     8.06     0  04:41        1.65
  YS02164001           JUNCTION     1.20     1.59     8.05     0  04:41        1.59
  YS02001647           JUNCTION     1.06     1.44     8.05     0  04:46        1.44
  YSB1154              JUNCTION     0.22     0.38     9.44     0  02:12        0.38
  YSB6556              JUNCTION     0.12     0.27     9.44     0  02:12        0.27
  YSB1174              JUNCTION     0.18     0.33     9.44     0  02:12        0.33
  YSB1171              JUNCTION     0.38     0.53     9.44     0  02:12        0.53
  YS02006553           JUNCTION     0.64     0.84     7.12     0  02:41        0.84
  YS02006561           JUNCTION     0.12     0.21     6.87     0  02:41        0.21
  YS02006556           JUNCTION     0.61     0.81     7.12     0  02:40        0.81
  YS02006558           JUNCTION     0.66     0.85     7.12     0  02:40        0.85
  YS02001783           JUNCTION     0.20     0.38     6.52     0  02:41        0.38
  YS02001784           JUNCTION     0.24     0.40     6.47     0  02:41        0.40
  YS02001786           JUNCTION     0.20     0.34     6.37     0  02:41        0.34
  YS02001788           JUNCTION     0.14     0.26     6.23     0  02:42        0.26
  YS02001790           JUNCTION     0.17     0.31     5.96     0  02:42        0.31
  YS02001791           JUNCTION     0.12     0.44     5.91     0  03:19        0.36
  YS02001793           JUNCTION     0.10     1.03     5.86     0  03:18        0.99
  WSC                  OUTFALL      0.30     0.39     1.06     0  05:12        0.39
  JK-storage           STORAGE      1.32     5.06     5.86     0  03:19        5.05
  CC-storage           STORAGE      0.70     1.04     8.04     0  04:45        1.04
  XR-storage           STORAGE      1.93     5.90     3.90     0  07:06        5.90
  
  
  *******************
  Node Inflow Summary
  *******************
  
  -------------------------------------------------------------------------------------------------
                                  Maximum  Maximum                  Lateral       Total        Flow
                                  Lateral    Total  Time of Max      Inflow      Inflow     Balance
                                   Inflow   Inflow   Occurrence      Volume      Volume       Error
  Node                 Type           LPS      LPS  days hr:min    10^6 ltr    10^6 ltr     Percent
  -------------------------------------------------------------------------------------------------
  WS02001211           JUNCTION      7.35   388.70     0  03:10       0.207        7.59       0.516
  WS02001212           JUNCTION      0.00   389.91     0  03:10           0        7.55       0.383
  WS02001213           JUNCTION      0.00   391.14     0  03:09           0        7.53       0.283
  WS02003069           JUNCTION      0.32   942.40     0  05:09     0.00902        13.2       0.175
  WS02003072           JUNCTION      0.00   942.32     0  05:10           0        13.2       0.231
  WS02003073           JUNCTION      1.82   944.16     0  05:11      0.0514        13.2       0.253
  WS02003060           JUNCTION     16.53   942.04     0  05:09       0.466        13.3       0.171
  WS02003066           JUNCTION      0.00   544.25     0  05:08           0        5.35       0.032
  WS02003059           JUNCTION      0.00   393.30     0  03:09           0        7.51       0.494
  WS02003067           JUNCTION      0.00   544.13     0  05:08           0        5.35       0.084
  WS02004401           JUNCTION      0.00   551.06     0  05:05           0        5.46       0.199
  WS02004402           JUNCTION      0.00   550.04     0  05:06           0        5.45       0.201
  WS02004403           JUNCTION      0.00   549.34     0  05:06           0        5.44       0.196
  WS02004404           JUNCTION      0.16   548.94     0  05:06     0.00457        5.43       0.163
  WS02004406           JUNCTION      0.00   548.96     0  05:06           0        5.41       0.399
  WS02004409           JUNCTION      0.00   547.13     0  05:06           0        5.39       0.063
  WS02004410           JUNCTION      0.00   546.00     0  05:07           0        5.39       0.097
  WS02004411           JUNCTION      0.00   545.25     0  05:07           0        5.38       0.120
  WS02004412           JUNCTION      0.00   544.77     0  05:07           0        5.37       0.156
  WS02004413           JUNCTION      0.00   544.42     0  05:08           0        5.37       0.272
  WS02004405           JUNCTION      0.04   548.76     0  05:06     0.00107        5.43       0.239
  WS02006109           JUNCTION      1.23   550.31     0  04:54      0.0347        5.49       0.102
  WS02006110           JUNCTION      0.00   550.31     0  04:54           0        5.48       0.169
  WS02006111           JUNCTION      0.00   571.04     0  05:05           0        5.47       0.012
  WS02006112           JUNCTION      8.94   554.72     0  05:05      0.0241        5.49       0.336
  WS02006113           JUNCTION      0.00   550.69     0  04:54           0        5.47       0.041
  WS02006115           JUNCTION      0.00   561.41     0  05:05           0        5.48       0.139
  WS02006116           JUNCTION      0.00   553.60     0  05:05           0        5.47       0.112
  WS02006230           JUNCTION     10.28   531.95     0  04:55        0.29        4.63       0.133
  WS02006231           JUNCTION      0.00   521.70     0  04:53           0        4.33      -0.087
  WS02006232           JUNCTION      0.00   522.31     0  04:53           0        4.34       0.120
  WS02006234           JUNCTION      0.00   522.30     0  04:53           0        4.33      -0.079
  WS02006235           JUNCTION      0.00   522.02     0  04:53           0        4.44       0.116
  WS02006238           JUNCTION      0.00   368.14     0  05:31           0        2.18       0.037
  WS02006240           JUNCTION      0.00   370.89     0  05:31           0        2.08       0.034
  WS02006242           JUNCTION      0.00   371.67     0  05:31           0        2.04       0.032
  WS02006243           JUNCTION      0.00   372.94     0  05:31           0        2.01      -0.213
  WS02006245           JUNCTION      0.00   374.41     0  05:31           0           2       0.183
  WS02006247           JUNCTION      0.00   375.75     0  05:30           0        1.99       0.030
  WS02006248           JUNCTION      0.00   379.06     0  05:30           0        1.99      -0.049
  WS02006249           JUNCTION      0.00   429.89     0  04:53           0        2.06       0.067
  WS02006239           JUNCTION      0.00   368.66     0  05:31           0        2.13      -0.010
  WS02006251           JUNCTION      0.08   413.79     0  04:53     0.00217        2.09      -0.032
  WS02006252           JUNCTION      0.00   400.00     0  04:50           0        1.92      -0.002
  WS02006253           JUNCTION      1.33   129.55     0  04:51     0.00312       0.163      -0.213
  WS02006256           JUNCTION      0.00   983.00     0  03:40           0        3.58       0.032
  WS02004138           JUNCTION      0.00   380.00     0  00:00           0        7.41       0.078
  WS02004139           JUNCTION      0.32   394.45     0  00:00     0.00905        7.42       0.605
  WS02004407           JUNCTION      0.00   547.61     0  05:06           0        5.39       0.027
  WS02006228           JUNCTION      0.00   549.30     0  04:54           0        5.46       0.069
  WS02006229           JUNCTION      0.00   547.97     0  04:53           0        5.46       0.152
  WS02006280           JUNCTION      0.00   203.85     0  02:14           0       0.846       0.009
  WS02006284           JUNCTION      0.10   203.84     0  02:13      0.0027       0.847       0.134
  WS02006287           JUNCTION      0.00   203.72     0  02:13           0       0.845       0.085
  WSF200               JUNCTION      0.00   544.31     0  05:08           0        5.35       0.018
  HS02004901           JUNCTION     11.02    11.02     0  02:07       0.029      0.0291       6.419
  HS02004881           JUNCTION      4.50    38.62     0  02:12      0.0126       0.132       0.058
  HS02004876           JUNCTION      7.22    34.43     0  02:13      0.0242        0.12       0.434
  HS02004870           JUNCTION      7.98    27.42     0  02:13      0.0239      0.0961       0.111
  HS02004862           JUNCTION      6.57    20.06     0  02:13      0.0295      0.0724       0.231
  HS02004856           JUNCTION      5.91    13.59     0  02:12       0.018      0.0443       3.358
  HS02004852           JUNCTION      0.00     8.11     0  02:13           0      0.0264       0.185
  HS02004848           JUNCTION     12.99    12.99     0  02:14      0.0569      0.0569       0.076
  HS02004842           JUNCTION      0.00     5.29     0  02:22           0      0.0436      42.529
  HS02004837           JUNCTION     19.17    23.79     0  02:11       0.221       0.251       0.324
  HS02004830           JUNCTION      0.15    23.92     0  02:12     0.00423       0.242       0.512
  HS02004824           JUNCTION     14.44    38.24     0  02:14      0.0746       0.315       0.171
  HS02004817           JUNCTION      0.60    38.83     0  02:14      0.0169       0.331       5.294
  HS02004807           JUNCTION     14.99    52.45     0  02:14       0.044       0.359       1.192
  HS02004802           JUNCTION      0.00    52.68     0  02:15           0       0.354       1.157
  HS02004799           JUNCTION     11.56   128.97     0  02:11      0.0356       0.435       0.538
  HS02004792           JUNCTION     51.50   117.73     0  02:11       0.156         0.4       0.104
  HS02004788           JUNCTION     17.37    68.52     0  02:11      0.0965       0.245       0.159
  HS02004785           JUNCTION      0.15    51.67     0  02:11     0.00423        0.15       0.319
  HS02004777           JUNCTION      0.03    52.05     0  02:09    0.000846        0.15       3.566
  HS02004770           JUNCTION     43.53    53.43     0  02:08       0.124       0.151       2.091
  HS02004480           JUNCTION      0.00   151.97     0  02:12           0       0.506       0.140
  HS02004479           JUNCTION      0.00    23.57     0  02:14           0      0.0838       0.878
  HS02004478           JUNCTION      0.00   203.71     0  02:13           0       0.846       0.070
  YS02001745           JUNCTION     65.49   132.29     0  04:01       0.751       0.771       0.766
  YS02001748           JUNCTION      0.04   166.44     0  03:56     0.00127       0.785       2.472
  YS02001751           JUNCTION      0.01   186.26     0  02:54     0.00031       0.747       3.071
  YS02001754           JUNCTION      0.26   113.98     0  02:52     0.00733       0.717       3.592
  YS02001762           JUNCTION      0.00   124.32     0  02:55           0       0.802       2.853
  YS02001765           JUNCTION      0.00   104.48     0  02:55           0       0.804       3.184
  YS02001767           JUNCTION      0.54   150.41     0  02:56      0.0151       0.826       4.567
  YS02001770           JUNCTION     85.85   150.59     0  02:57       0.882       0.905       3.773
  YS02001774           JUNCTION      0.00    74.88     0  02:57           0      0.0857      43.956
  YS02001779           JUNCTION      0.01    77.54     0  02:57    0.000141      0.0364      74.635
  YS02001882           JUNCTION      0.00     3.66     0  02:07           0     0.00483      50.080
  YS02001884           JUNCTION      0.00    10.99     0  02:04           0      0.0195      32.120
  YS02001759           JUNCTION     84.62   203.42     0  02:55       0.823        1.59       1.537
  YS02001887           JUNCTION    113.52   113.52     0  02:30       0.986       0.996       0.709
  YS02001890           JUNCTION      0.00   112.44     0  02:34           0       0.973       0.797
  YS02001898           JUNCTION      0.00   111.81     0  02:35           0       0.962       0.215
  YS02001901           JUNCTION      0.00   111.64     0  02:36           0       0.961       0.564
  YS02001904           JUNCTION      0.00   111.32     0  02:38           0       0.959       0.523
  YS02001907           JUNCTION      0.00   199.29     0  02:42           0        2.05       1.075
  YS02001910           JUNCTION      0.00    88.97     0  02:49           0         1.1       0.912
  YS02001915           JUNCTION     59.21    88.45     0  02:47       0.644        1.11       0.397
  YS02001918           JUNCTION      0.00    30.18     0  03:02           0       0.465       0.229
  YS02001619           JUNCTION     57.40    57.40     0  02:42       0.635       0.635       1.946
  YS02001629           JUNCTION      0.00   112.47     0  03:02           0       0.555       5.389
  YS02001641           JUNCTION      0.00   143.64     0  02:57           0        1.19       1.859
  YS02001644           JUNCTION     62.12   203.80     0  02:55       0.721        1.88       1.405
  YS02001652           JUNCTION      0.00   105.86     0  02:50           0       0.672       3.677
  YS02001655           JUNCTION      0.15   179.17     0  02:54     0.00434       0.699       3.665
  YS02001920           JUNCTION      2.87    30.18     0  03:01      0.0809       0.467       0.424
  YS02001923           JUNCTION      0.04    27.31     0  03:01     0.00106       0.386       0.074
  YS02001926           JUNCTION      0.05    27.29     0  03:01     0.00147       0.387       0.528
  YS02001929           JUNCTION     27.24    27.24     0  03:01       0.386       0.386       0.071
  YS02001658           JUNCTION      0.00   110.13     0  02:54           0       0.719       2.759
  YS02001661           JUNCTION      0.00    79.88     0  02:32           0       0.725       1.531
  YS02001664           JUNCTION     79.88    79.88     0  02:32        0.72        0.72       0.009
  YS02001622           JUNCTION      0.00    92.22     0  03:03           0       0.623       5.368
  YS02001633           JUNCTION     63.07   128.42     0  03:00       0.742        1.25       2.664
  YS02001649           JUNCTION      0.00   308.66     0  02:59           0        2.46       1.596
  YS02001757           JUNCTION      0.00   488.96     0  02:53           0        4.64       2.051
  YS02001895           JUNCTION      0.00   112.04     0  02:34           0       0.965       0.374
  YS02001625           JUNCTION      0.00   102.27     0  03:03           0       0.592       7.101
  YS02163301           JUNCTION      0.00    79.67     0  02:49           0       0.534       4.843
  YS02163601           JUNCTION      0.11   149.41     0  02:59      0.0031        1.21       2.595
  YS02164001           JUNCTION      0.00   149.20     0  02:58           0        1.19       1.811
  YS02001647           JUNCTION      0.00   192.44     0  02:57           0        1.84       1.592
  YSB1154              JUNCTION     12.84    12.84     0  02:10      0.0431      0.0443       3.367
  YSB6556              JUNCTION      0.00    12.69     0  02:12           0      0.0453       2.826
  YSB1174              JUNCTION     12.46    12.46     0  02:06      0.0314      0.0322       4.145
  YSB1171              JUNCTION      0.00    23.54     0  02:12           0       0.083       8.242
  YS02006553           JUNCTION      0.00   199.37     0  02:43           0        2.04       0.698
  YS02006561           JUNCTION      0.00   293.20     0  02:40           0        2.89       0.022
  YS02006556           JUNCTION      0.00   199.46     0  02:43           0        2.05       0.503
  YS02006558           JUNCTION     95.11   293.21     0  02:40       0.898        2.92       0.153
  YS02001783           JUNCTION      0.00   293.20     0  02:41           0        2.89       0.050
  YS02001784           JUNCTION      1.06   294.26     0  02:41      0.0299        2.92       0.083
  YS02001786           JUNCTION      0.06   294.31     0  02:41     0.00159        2.92       0.081
  YS02001788           JUNCTION      0.07   294.38     0  02:41       0.002        2.92       0.047
  YS02001790           JUNCTION      0.15   294.53     0  02:42     0.00437        2.92       0.058
  YS02001791           JUNCTION      0.00   294.53     0  02:42           0        2.92       0.036
  YS02001793           JUNCTION      0.00   523.90     0  03:20           0        2.92       0.002
  WSC                  OUTFALL       0.00   944.21     0  05:12           0        13.2       0.000
  JK-storage           STORAGE       0.00   534.47     0  03:32           0        3.07     -16.947
  CC-storage           STORAGE       0.00   461.77     0  02:47           0        4.54       1.182
  XR-storage           STORAGE     317.65   317.65     0  02:39        7.05        7.65      -1.149
  
  
  **********************
  Node Surcharge Summary
  **********************
  
  Surcharging occurs when water rises above the top of the highest conduit.
  ---------------------------------------------------------------------
                                               Max. Height   Min. Depth
                                   Hours       Above Crown    Below Rim
  Node                 Type      Surcharged         Meters       Meters
  ---------------------------------------------------------------------
  WS02006109           JUNCTION        0.93          0.175        1.645
  WS02006110           JUNCTION        0.42          0.022        1.828
  WS02006112           JUNCTION        0.48          0.066        1.614
  WS02006230           JUNCTION        0.22          0.046        1.524
  WS02006231           JUNCTION        0.54          0.160        1.370
  WS02006232           JUNCTION        1.14          0.364        1.116
  WS02006234           JUNCTION        0.83          0.359        0.881
  WS02006235           JUNCTION        0.91          0.457        0.833
  WS02006238           JUNCTION        0.94          0.476        0.954
  WS02006240           JUNCTION        0.81          0.431        0.959
  WS02006242           JUNCTION        0.95          0.491        0.329
  WS02006243           JUNCTION        0.68          0.422        0.348
  WS02006245           JUNCTION        0.63          0.481        0.369
  WS02006247           JUNCTION        0.63          0.556        0.204
  WS02006248           JUNCTION        0.57          0.362        0.018
  WS02006249           JUNCTION        0.58          0.390        0.000
  WS02006239           JUNCTION        0.85          0.439        0.851
  WS02006251           JUNCTION        0.39          0.248        0.932
  WS02006252           JUNCTION        0.97          0.438        0.662
  WS02006253           JUNCTION        0.40          0.309        2.171
  WS02006256           JUNCTION        5.98          2.050        0.000
  WS02006228           JUNCTION        0.91          0.205        1.995
  YS02001751           JUNCTION        2.51          0.171        1.029
  YS02001754           JUNCTION        4.30          0.392        0.758
  YS02001762           JUNCTION        5.06          0.651        0.499
  YS02001765           JUNCTION        4.88          0.602        0.498
  YS02001767           JUNCTION        4.78          0.564        0.466
  YS02001770           JUNCTION        4.66          0.525        0.395
  YS02001774           JUNCTION        4.98          0.632        0.418
  YS02001779           JUNCTION        4.22          0.367        0.313
  YS02001759           JUNCTION        5.18          0.689        0.521
  YS02001619           JUNCTION        1.28          0.126        0.484
  YS02001629           JUNCTION        1.29          0.126        0.344
  YS02001641           JUNCTION        4.94          0.618        0.482
  YS02001644           JUNCTION        4.94          0.620        0.300
  YS02001652           JUNCTION        4.39          0.427        0.703
  YS02001655           JUNCTION        2.93          0.200        1.000
  YS02001622           JUNCTION        1.92          0.151        0.469
  YS02001633           JUNCTION        4.81          0.585        0.475
  YS02001649           JUNCTION        5.10          0.661        0.389
  YS02001757           JUNCTION        5.38          0.789        0.421
  YS02001625           JUNCTION        4.45          0.451        0.329
  YS02163301           JUNCTION        4.70          0.539        0.491
  YS02163601           JUNCTION        5.09          0.659        0.421
  YS02164001           JUNCTION        4.86          0.594        0.506
  YS02001647           JUNCTION        4.42          0.440        0.460
  YS02001793           JUNCTION        0.01          0.030        2.570
  
  
  *********************
  Node Flooding Summary
  *********************
  
  Flooding refers to all water that overflows a node, whether it ponds or not.
  --------------------------------------------------------------------------
                                                             Total   Maximum
                                 Maximum   Time of Max       Flood    Ponded
                        Hours       Rate    Occurrence      Volume     Depth
  Node                 Flooded       LPS   days hr:min    10^6 ltr    Meters
  --------------------------------------------------------------------------
  WS02006249              0.36    108.90      0  04:53       0.066     0.000
  WS02006256              1.69    761.10      0  04:51       1.230     0.000
  
  
  **********************
  Storage Volume Summary
  **********************
  
  --------------------------------------------------------------------------------------------------
                         Average     Avg  Evap Exfil       Maximum     Max    Time of Max    Maximum
                          Volume    Pcnt  Pcnt  Pcnt        Volume    Pcnt     Occurrence    Outflow
  Storage Unit           1000 m3    Full  Loss  Loss       1000 m3    Full    days hr:min        LPS
  --------------------------------------------------------------------------------------------------
  JK-storage               0.066      23     0     0         0.254      87       0  03:19     983.00
  CC-storage               1.947      12     0     0         2.899      18       0  04:45     400.00
  XR-storage               0.231      25     0     0         0.708      76       0  07:06     380.00
  
  
  ***********************
  Outfall Loading Summary
  ***********************
  
  ---------------------------------------------------------------------------------------------------------------------------------
                         Flow       Avg       Max       Total         Total         Total         Total         Total         Total
                         Freq      Flow      Flow      Volume           COD            SS            TN            TP         NH4-N
  Outfall Node           Pcnt       LPS       LPS    10^6 ltr            kg            kg            kg            kg            kg
  ---------------------------------------------------------------------------------------------------------------------------------
  WSC                   99.99    582.89    944.21      13.210      1745.106      2814.696       148.608        18.263        92.061
  ---------------------------------------------------------------------------------------------------------------------------------
  System                99.99    582.89    944.21      13.210      1745.106      2814.696       148.608        18.263        92.061
  
  
  ********************
  Link Flow Summary
  ********************
  
  -----------------------------------------------------------------------------
                                 Maximum  Time of Max   Maximum    Max/    Max/
                                  |Flow|   Occurrence   |Veloc|    Full    Full
  Link                 Type          LPS  days hr:min     m/sec    Flow   Depth
  -----------------------------------------------------------------------------
  WS02003066WSF200     CONDUIT    544.31     0  05:08      2.84    0.09    0.23
  WS02006287WS02006284 CONDUIT    203.74     0  02:13      1.62    0.09    0.22
  WS02006284WS02006280 CONDUIT    203.85     0  02:14      1.86    0.09    0.20
  WS02006280WS02006229 CONDUIT    203.86     0  02:14      2.99    0.04    0.14
  WS02006229WS02006228 CONDUIT    549.30     0  04:54      1.09    1.82    1.00
  WS02006256WS02006235 CONDUIT    263.72     0  04:42      3.73    2.79    1.00
  WS02006253WS02006251 CONDUIT    128.35     0  04:51      0.49    0.38    1.00
  WS02006252WS02006251 CONDUIT    404.50     0  04:53      3.22    1.48    1.00
  WS02006251WS02006249 CONDUIT    429.89     0  04:53      1.12    1.24    1.00
  WS02006249WS02006248 CONDUIT    379.06     0  05:30      1.14    2.08    1.00
  WS02006248WS02006247 CONDUIT    375.75     0  05:30      1.08    0.82    1.00
  WS02006247WS02006245 CONDUIT    374.41     0  05:31      1.01    2.97    1.00
  WS02006245WS02006243 CONDUIT    372.94     0  05:31      0.99    1.10    1.00
  WS02006243WS02006242 CONDUIT    371.67     0  05:31      0.97    0.79    1.00
  WS02006242WS02006240 CONDUIT    370.89     0  05:31      0.97    1.47    1.00
  WS02006240WS02006239 CONDUIT    368.66     0  05:31      0.98    1.16    1.00
  WS02006239WS02006238 CONDUIT    368.14     0  05:31      0.96    1.18    1.00
  WS02006238WS02006235 CONDUIT    367.99     0  05:31      0.96    0.82    1.00
  WS02006235WS02006234 CONDUIT    522.30     0  04:53      1.36    5.51    1.00
  WS02006234WS02006232 CONDUIT    522.31     0  04:53      1.36    1.06    1.00
  WS02006232WS02006231 CONDUIT    521.70     0  04:53      1.36    1.09    1.00
  WS02006231WS02006230 CONDUIT    521.67     0  04:55      1.40    7.91    1.00
  WS02006230WS02006229 CONDUIT    533.81     0  04:53      1.39   11.88    1.00
  WS02006228WS02006109 CONDUIT    549.08     0  04:54      1.09    2.40    1.00
  WS02006116WS02004401 CONDUIT    551.06     0  05:05      0.96    0.76    0.85
  WS02006115WS02006116 CONDUIT    553.60     0  05:05      1.05    0.71    0.77
  WS02006113WS02006111 CONDUIT    571.04     0  05:05      2.48    0.68    0.47
  WS02006112WS02006115 CONDUIT    561.41     0  05:05      0.83    0.33    0.88
  WS02006111WS02006112 CONDUIT    554.67     0  05:05      1.54    0.26    0.68
  WS02006110WS02006113 CONDUIT    550.69     0  04:54      1.30    0.50    0.79
  WS02006109WS02006110 CONDUIT    550.31     0  04:54      1.09    1.06    1.00
  WS02004411WS02004412 CONDUIT    544.77     0  05:07      0.93    0.77    0.70
  WS02004401WS02004402 CONDUIT    550.04     0  05:06      0.96    0.66    0.87
  WS02004413WS02003067 CONDUIT    544.13     0  05:08      1.12    0.23    0.59
  WS02004412WS02004413 CONDUIT    544.42     0  05:08      0.83    0.36    0.78
  WS02004410WS02004411 CONDUIT    545.25     0  05:07      0.94    0.74    0.69
  WS02004409WS02004410 CONDUIT    546.00     0  05:07      1.03    0.71    0.68
  WS02004407WS02004409 CONDUIT    547.13     0  05:06      1.55    0.19    0.49
  WS02004406WS02004407 CONDUIT    547.61     0  05:06      1.05    0.24    0.63
  WS02004405WS02004406 CONDUIT    548.96     0  05:06      0.96    1.08    0.96
  WS02004404WS02004405 CONDUIT    548.72     0  05:06      1.13    5.38    0.97
  WS02004403WS02004404 CONDUIT    548.78     0  05:06      0.97    0.40    0.93
  WS02004402WS02004403 CONDUIT    549.34     0  05:06      0.99    0.79    0.89
  WS02004139WS02001211 CONDUIT    381.35     0  03:10      0.90    0.48    0.60
  WS02004138WS02004139 CONDUIT    394.13     0  00:00      3.62    0.08    0.44
  WS02003067WS02003066 CONDUIT    544.25     0  05:08      1.22    0.17    0.42
  WS02001213WS02003059 CONDUIT    393.30     0  03:09      0.89    0.65    0.78
  WS02001212WS02001213 CONDUIT    391.14     0  03:09      1.32    0.60    0.47
  WS02001211WS02001212 CONDUIT    389.91     0  03:10      0.78    0.30    0.65
  WS02003072WS02003073 CONDUIT    942.34     0  05:11      1.73    2.04    0.49
  WS02003069WS02003072 CONDUIT    942.32     0  05:10      1.62    0.45    0.51
  WS02003060WS02003069 CONDUIT    942.08     0  05:09      1.87    0.37    0.46
  WS02003059WS02003060 CONDUIT    396.33     0  03:09      0.95    0.26    0.66
  HS02004901HS02004770 CONDUIT     10.17     0  02:10      0.05    0.04    0.32
  HS02004876HS02004881 CONDUIT     34.52     0  02:13      0.56    0.37    0.09
  HS02004870HS02004876 CONDUIT     27.40     0  02:13      0.39    0.02    0.10
  HS02004842HS02004848 CONDUIT      5.29     0  02:22      0.03    0.00    0.27
  HS02004837HS02004842 CONDUIT      5.51     0  02:23      0.42    0.00    0.29
  HS02004830HS02004837 CONDUIT     23.77     0  02:12      0.44    0.02    0.08
  HS02004824HS02004830 CONDUIT     23.91     0  02:13      0.48    0.03    0.07
  HS02004817HS02004824 CONDUIT     38.23     0  02:14      0.17    0.02    0.40
  HS02004770HS02004777 CONDUIT     52.02     0  02:09      0.23    0.10    0.33
  HS02004799HS02004480 CONDUIT    128.73     0  02:11      0.59    0.16    0.31
  HS02004792HS02004799 CONDUIT    117.64     0  02:11      0.68    0.07    0.25
  HS02004788HS02004792 CONDUIT     68.45     0  02:12      0.83    0.05    0.12
  HS02004785HS02004788 CONDUIT     51.57     0  02:12      0.51    0.39    0.14
  HS02004777HS02004785 CONDUIT     51.52     0  02:11      0.27    0.06    0.27
  HS02004480HS02004478 CONDUIT    151.93     0  02:12      0.96    0.64    0.23
  HS02004479HS02004480 CONDUIT     23.83     0  02:15      0.16    0.02    0.30
  HS02004862HS02004870 CONDUIT     20.01     0  02:14      0.47    0.02    0.06
  HS02004848HS02004852 CONDUIT      8.11     0  02:13      0.31    0.01    0.04
  HS02004856HS02004862 CONDUIT     13.54     0  02:13      0.34    0.01    0.06
  HS02004852HS02004856 CONDUIT      8.05     0  02:14      0.12    0.01    0.09
  HS02004802HS02004478 CONDUIT     53.09     0  02:16      0.30    0.05    0.25
  HS02004478WS02006287 CONDUIT    203.72     0  02:13      1.31    0.06    0.17
  HS02004817HS02004807 CONDUIT     39.32     0  02:17      0.11    0.02    0.51
  HS02004807HS02004802 CONDUIT     52.68     0  02:15      0.25    0.10    0.30
  YS02001759YS02001757 CONDUIT    204.30     0  02:55      0.26    0.15    1.00
  YS02001762YS02001759 CONDUIT    123.22     0  02:55      0.17    0.14    1.00
  YS02001765YS02001762 CONDUIT    124.32     0  02:55      0.24    0.12    1.00
  YS02001770YS02001767 CONDUIT    149.87     0  02:56      0.29    0.59    1.00
  YS02001774YS02001770 CONDUIT     74.88     0  02:57      0.13    0.05    1.00
  YS02001779YS02001774 CONDUIT     77.53     0  02:57      0.11    0.04    1.00
  YS02001649YS02001757 CONDUIT    311.46     0  02:59      0.40    0.19    1.00
  YS02001767YS02001765 CONDUIT    104.48     0  02:55      0.26    0.13    1.00
  YS02006561YS02001783 CONDUIT    293.20     0  02:41      1.75    0.15    0.37
  YS02001783YS02001784 CONDUIT    293.20     0  02:41      1.21    0.40    0.49
  YS02001784YS02001785 CONDUIT    294.25     0  02:41      1.28    0.68    0.47
  YS02001788YS02001790 CONDUIT    294.38     0  02:42      1.84    0.22    0.35
  YS02001790YS02001791 CONDUIT    294.53     0  02:42      2.13    0.32    0.45
  YS02001791YS02001793 CONDUIT    523.90     0  03:20      4.30    0.22    0.78
  YS02001910YS02001907 CONDUIT     89.25     0  02:50      0.49    0.05    0.72
  YS02001786YS02001788 CONDUIT    294.31     0  02:41      1.71    0.57    0.37
  YS02001915YS02001910 CONDUIT     88.97     0  02:49      0.45    0.04    0.51
  YS02001918YS02001915 CONDUIT     30.17     0  03:02      0.44    0.02    0.25
  YS02001923YS02001920 CONDUIT     27.31     0  03:01      0.42    0.01    0.14
  YS02001926YS02001923 CONDUIT     27.28     0  03:01      0.47    0.04    0.13
  YS02001929YS02001926 CONDUIT     27.24     0  03:01      0.49    0.01    0.12
  YS02001920YS02001918 CONDUIT     30.18     0  03:02      0.44    0.03    0.14
  YS02001629YS02163301 CONDUIT     79.67     0  02:49      0.11    0.10    1.00
  YS02001619YS02001622 CONDUIT     92.22     0  03:03      0.64    0.14    1.00
  YS02001622YS02001625 CONDUIT     88.06     0  03:03      0.25    0.05    1.00
  YS02001625YS02001629 CONDUIT    112.47     0  03:02      0.25    0.05    1.00
  YS02163301YS02001633 CONDUIT     66.41     0  03:00      0.09    0.06    1.00
  YS02163601YS02164001 CONDUIT    149.20     0  02:58      0.19    0.13    1.00
  YS02164001YS02001641 CONDUIT    143.64     0  02:57      0.18    0.20    1.00
  YS02001641YS02001644 CONDUIT    142.32     0  02:55      0.18    0.46    1.00
  YS02001647YS02001649 CONDUIT    247.19     0  02:58      0.33    0.13    1.00
  YS02006553YS02006556 CONDUIT    199.46     0  02:43      0.30    0.17    0.80
  YS02006556YS02006558 CONDUIT    199.51     0  02:43      0.29    0.16    0.83
  YSB6556YSB1171       CONDUIT     12.91     0  02:14      0.06    0.01    0.57
  YS02001907YS02006553 CONDUIT    199.37     0  02:43      0.24    0.23    0.91
  YS02006558YS02006561 CONDUIT    293.20     0  02:40      2.25    0.65    0.47
  YS02001633YS02163601 CONDUIT    149.30     0  02:59      0.19    0.16    1.00
  YS02001644YS02001647 CONDUIT    192.44     0  02:57      0.26    0.11    1.00
  YS02001745YS02001748 CONDUIT    166.40     0  03:56      1.39    0.06    0.71
  YS02001748YS02001751 CONDUIT    186.25     0  02:54      1.08    0.09    0.99
  YS02001751YS02001754 CONDUIT     85.19     0  03:00      0.94    0.04    1.00
  YS02001754YS02001757 CONDUIT    155.39     0  02:54      0.33    0.06    1.00
  YS02001882YS02001884 CONDUIT      3.66     0  02:07      0.07    0.00    0.45
  YS02001884YS02001887 CONDUIT     10.99     0  02:04      0.05    0.01    0.54
  YS02001890YS02001895 CONDUIT    112.04     0  02:34      0.28    0.05    0.51
  YS02001895YS02001898 CONDUIT    111.81     0  02:35      0.45    0.19    0.37
  YS02001898YS02001901 CONDUIT    111.64     0  02:36      0.32    0.07    0.45
  YS02001901YS02001904 CONDUIT    111.32     0  02:38      0.28    0.17    0.50
  YS02001904YS02001907 CONDUIT    111.36     0  02:38      0.20    0.04    0.66
  YS02001887YS02001890 CONDUIT    112.44     0  02:34      0.23    0.19    0.59
  YS02001652YS02001649 CONDUIT    165.68     0  02:53      0.31    0.08    1.00
  YS02001655YS02001652 CONDUIT    105.86     0  02:50      0.98    0.05    1.00
  YS02001658YS02001655 CONDUIT    179.01     0  02:54      1.25    0.08    0.95
  YS02001661YS02001658 CONDUIT     99.70     0  03:52      1.43    0.04    0.74
  YS02001664YS02001661 CONDUIT     79.88     0  02:32      1.08    0.03    0.39
  YSB1154YSB6556       CONDUIT     12.69     0  02:12      0.19    0.02    0.46
  YSB1174YSB1171       CONDUIT     11.57     0  02:07      0.05    0.02    0.58
  YSB1171HS02004479    CONDUIT     23.57     0  02:14      0.54    0.02    0.45
  HS02004881HS02006253 CONDUIT     38.61     0  02:13      1.66    0.01    0.50
  YS02001793JiankangQianchi CONDUIT    534.47     0  03:32     13.13    0.04    1.00
  YS02001757CaochengTiaoxuchi CONDUIT    461.77     0  02:47      0.93    0.20    1.00
  WSF200WS02003060     CONDUIT    544.54     0  05:08      2.13    0.12    0.34
  1                    CONDUIT    944.21     0  05:12      3.28    0.33    0.39
  CC-Pump-1            PUMP       200.00     0  04:50              1.00
  CC-Pump-2            PUMP       200.00     0  04:50              1.00
  JK-Pump-1            PUMP       300.00     0  02:30              1.00
  JK-Pump-2            PUMP       683.00     0  03:40              1.00
  XR-Pump-1            PUMP        95.00     0  00:00              1.00
  XR-Pump-2            PUMP        95.00     0  00:00              1.00
  XR-Pump-3            PUMP        95.00     0  00:00              1.00
  XR-Pump-4            PUMP        95.00     0  00:00              1.00
  
  
  ***************************
  Flow Classification Summary
  ***************************
  
  -------------------------------------------------------------------------------------
                      Adjusted    ---------- Fraction of Time in Flow Class ---------- 
                       /Actual         Up    Down  Sub   Sup   Up    Down  Norm  Inlet 
  Conduit               Length    Dry  Dry   Dry   Crit  Crit  Crit  Crit  Ltd   Ctrl  
  -------------------------------------------------------------------------------------
  WS02003066WSF200        1.00   0.01  0.04  0.00  0.00  0.95  0.00  0.00  0.83  0.00
  WS02006287WS02006284    1.00   0.05  0.03  0.00  0.75  0.17  0.00  0.00  0.78  0.00
  WS02006284WS02006280    1.00   0.06  0.00  0.00  0.00  0.00  0.00  0.94  0.00  0.00
  WS02006280WS02006229    1.00   0.06  0.00  0.00  0.00  0.00  0.00  0.94  0.00  0.00
  WS02006229WS02006228    1.00   0.00  0.00  0.00  1.00  0.00  0.00  0.00  0.00  0.00
  WS02006256WS02006235    1.00   0.01  0.00  0.00  0.99  0.00  0.00  0.00  0.00  0.00
  WS02006253WS02006251    1.00   0.02  0.03  0.00  0.94  0.00  0.01  0.00  0.00  0.00
  WS02006252WS02006251    1.00   0.36  0.03  0.00  0.04  0.00  0.57  0.00  0.00  0.00
  WS02006251WS02006249    1.00   0.00  0.00  0.00  1.00  0.00  0.00  0.00  0.69  0.00
  WS02006249WS02006248    1.00   0.00  0.01  0.00  0.68  0.00  0.31  0.00  0.00  0.00
  WS02006248WS02006247    1.00   0.01  0.00  0.00  0.98  0.00  0.00  0.01  0.48  0.00
  WS02006247WS02006245    1.00   0.01  0.00  0.00  0.97  0.00  0.00  0.02  0.00  0.00
  WS02006245WS02006243    1.00   0.01  0.00  0.00  0.86  0.00  0.00  0.13  0.03  0.00
  WS02006243WS02006242    1.00   0.01  0.00  0.00  0.98  0.00  0.00  0.00  0.47  0.00
  WS02006242WS02006240    1.00   0.01  0.00  0.00  0.99  0.00  0.00  0.00  0.00  0.00
  WS02006240WS02006239    1.00   0.01  0.00  0.00  0.86  0.00  0.00  0.13  0.02  0.00
  WS02006239WS02006238    1.00   0.01  0.00  0.00  0.99  0.00  0.00  0.00  0.23  0.00
  WS02006238WS02006235    1.00   0.01  0.00  0.00  0.99  0.00  0.00  0.00  0.00  0.00
  WS02006235WS02006234    1.00   0.01  0.00  0.00  0.90  0.00  0.09  0.00  0.00  0.00
  WS02006234WS02006232    1.00   0.01  0.00  0.00  0.99  0.00  0.00  0.00  0.12  0.00
  WS02006232WS02006231    1.00   0.01  0.00  0.00  0.98  0.00  0.01  0.00  0.00  0.00
  WS02006231WS02006230    1.00   0.01  0.00  0.00  0.44  0.00  0.55  0.00  0.00  0.00
  WS02006230WS02006229    1.00   0.00  0.00  0.00  0.98  0.00  0.00  0.02  0.00  0.00
  WS02006228WS02006109    1.00   0.00  0.00  0.00  1.00  0.00  0.00  0.00  0.00  0.00
  WS02006116WS02004401    1.00   0.02  0.00  0.00  0.98  0.00  0.00  0.00  0.00  0.00
  WS02006115WS02006116    1.00   0.02  0.00  0.00  0.97  0.00  0.00  0.00  0.00  0.00
  WS02006113WS02006111    1.00   0.02  0.00  0.00  0.00  0.98  0.00  0.00  0.22  0.00
  WS02006112WS02006115    1.00   0.02  0.00  0.00  0.98  0.00  0.00  0.00  0.00  0.00
  WS02006111WS02006112    1.00   0.02  0.00  0.00  0.98  0.00  0.00  0.00  0.95  0.00
  WS02006110WS02006113    1.00   0.00  0.01  0.00  0.98  0.00  0.00  0.00  0.00  0.00
  WS02006109WS02006110    1.00   0.00  0.00  0.00  0.99  0.00  0.00  0.00  0.00  0.00
  WS02004411WS02004412    1.00   0.03  0.00  0.00  0.97  0.00  0.00  0.00  0.00  0.00
  WS02004401WS02004402    1.00   0.02  0.00  0.00  0.98  0.00  0.00  0.00  0.00  0.00
  WS02004413WS02003067    1.00   0.04  0.01  0.00  0.00  0.00  0.96  0.00  0.00  0.00
  WS02004412WS02004413    1.00   0.04  0.00  0.00  0.96  0.00  0.00  0.00  0.00  0.00
  WS02004410WS02004411    1.00   0.03  0.00  0.00  0.97  0.00  0.00  0.00  0.00  0.00
  WS02004409WS02004410    1.00   0.03  0.00  0.00  0.97  0.00  0.00  0.00  0.00  0.00
  WS02004407WS02004409    1.00   0.03  0.00  0.00  0.96  0.00  0.00  0.00  0.93  0.00
  WS02004406WS02004407    1.00   0.00  0.03  0.00  0.97  0.00  0.00  0.00  0.00  0.00
  WS02004405WS02004406    1.00   0.00  0.00  0.00  1.00  0.00  0.00  0.00  0.02  0.00
  WS02004404WS02004405    1.00   0.00  0.00  0.00  1.00  0.00  0.00  0.00  0.00  0.00
  WS02004403WS02004404    1.00   0.00  0.02  0.00  0.98  0.00  0.00  0.00  0.00  0.00
  WS02004402WS02004403    1.00   0.02  0.00  0.00  0.98  0.00  0.00  0.00  0.00  0.00
  WS02004139WS02001211    1.00   0.00  0.00  0.00  1.00  0.00  0.00  0.00  0.00  0.00
  WS02004138WS02004139    1.00   0.00  0.01  0.00  0.99  0.00  0.00  0.00  1.00  0.00
  WS02003067WS02003066    1.00   0.04  0.00  0.00  0.96  0.00  0.00  0.00  0.00  0.00
  WS02001213WS02003059    1.00   0.00  0.00  0.00  1.00  0.00  0.00  0.00  0.00  0.00
  WS02001212WS02001213    1.00   0.00  0.00  0.00  0.78  0.00  0.22  0.00  0.00  0.00
  WS02001211WS02001212    1.00   0.00  0.00  0.00  1.00  0.00  0.00  0.00  0.00  0.00
  WS02003072WS02003073    1.00   0.00  0.00  0.00  0.00  0.00  0.00  1.00  0.00  0.00
  WS02003069WS02003072    1.00   0.00  0.00  0.00  1.00  0.00  0.00  0.00  0.30  0.00
  WS02003060WS02003069    1.00   0.00  0.00  0.00  0.98  0.02  0.00  0.00  0.24  0.00
  WS02003059WS02003060    1.00   0.00  0.00  0.00  1.00  0.00  0.00  0.00  0.00  0.00
  HS02004901HS02004770    1.00   0.06  0.00  0.00  0.94  0.00  0.00  0.00  0.02  0.00
  HS02004876HS02004881    1.00   0.01  0.00  0.00  0.99  0.00  0.00  0.00  0.00  0.00
  HS02004870HS02004876    1.00   0.00  0.00  0.00  0.99  0.00  0.00  0.00  0.95  0.00
  HS02004842HS02004848    1.00   0.00  0.06  0.00  0.94  0.00  0.00  0.00  0.68  0.00
  HS02004837HS02004842    1.00   0.00  0.00  0.00  1.00  0.00  0.00  0.00  0.11  0.00
  HS02004830HS02004837    1.00   0.00  0.00  0.00  1.00  0.00  0.00  0.00  0.99  0.00
  HS02004824HS02004830    1.00   0.00  0.00  0.00  1.00  0.00  0.00  0.00  0.00  0.00
  HS02004817HS02004824    1.00   0.00  0.00  0.00  1.00  0.00  0.00  0.00  1.00  0.00
  HS02004770HS02004777    1.00   0.00  0.06  0.00  0.94  0.00  0.00  0.00  0.06  0.00
  HS02004799HS02004480    1.00   0.00  0.02  0.00  0.92  0.00  0.07  0.00  0.00  0.00
  HS02004792HS02004799    1.00   0.00  0.00  0.00  1.00  0.00  0.00  0.00  0.98  0.00
  HS02004788HS02004792    1.00   0.00  0.00  0.00  1.00  0.00  0.00  0.00  0.98  0.00
  HS02004785HS02004788    1.00   0.00  0.00  0.00  1.00  0.00  0.00  0.00  0.00  0.00
  HS02004777HS02004785    1.00   0.00  0.00  0.00  1.00  0.00  0.00  0.00  0.18  0.00
  HS02004480HS02004478    1.00   0.06  0.00  0.00  0.77  0.00  0.00  0.17  0.00  0.00
  HS02004479HS02004480    1.00   0.02  0.00  0.00  0.98  0.00  0.00  0.00  0.15  0.00
  HS02004862HS02004870    1.00   0.00  0.00  0.00  1.00  0.00  0.00  0.00  0.06  0.00
  HS02004848HS02004852    1.00   0.06  0.00  0.00  0.94  0.00  0.00  0.00  0.72  0.00
  HS02004856HS02004862    1.00   0.00  0.10  0.00  0.90  0.00  0.00  0.00  0.76  0.00
  HS02004852HS02004856    1.00   0.06  0.01  0.00  0.93  0.00  0.00  0.00  0.83  0.00
  HS02004802HS02004478    1.00   0.06  0.01  0.00  0.93  0.00  0.00  0.00  0.01  0.00
  HS02004478WS02006287    1.00   0.08  0.00  0.00  0.87  0.05  0.00  0.00  0.78  0.00
  HS02004817HS02004807    1.00   0.00  0.06  0.00  0.94  0.00  0.00  0.00  0.00  0.00
  HS02004807HS02004802    1.00   0.06  0.00  0.00  0.94  0.00  0.00  0.00  0.01  0.00
  YS02001759YS02001757    1.00   0.00  0.00  0.00  1.00  0.00  0.00  0.00  0.18  0.00
  YS02001762YS02001759    1.00   0.00  0.00  0.00  1.00  0.00  0.00  0.00  0.04  0.00
  YS02001765YS02001762    1.00   0.00  0.00  0.00  1.00  0.00  0.00  0.00  0.21  0.00
  YS02001770YS02001767    1.00   0.00  0.00  0.00  1.00  0.00  0.00  0.00  0.00  0.00
  YS02001774YS02001770    1.00   0.00  0.07  0.00  0.93  0.00  0.00  0.00  0.06  0.00
  YS02001779YS02001774    1.00   0.00  0.00  0.00  1.00  0.00  0.00  0.00  0.25  0.00
  YS02001649YS02001757    1.00   0.00  0.00  0.00  1.00  0.00  0.00  0.00  0.19  0.00
  YS02001767YS02001765    1.00   0.00  0.00  0.00  1.00  0.00  0.00  0.00  0.01  0.00
  YS02006561YS02001783    1.00   0.10  0.00  0.00  0.00  0.90  0.00  0.00  0.75  0.00
  YS02001783YS02001784    1.00   0.00  0.10  0.00  0.90  0.00  0.00  0.00  0.01  0.00
  YS02001784YS02001785    1.00   0.00  0.00  0.00  1.00  0.00  0.00  0.00  0.24  0.00
  YS02001788YS02001790    1.00   0.00  0.00  0.00  0.11  0.89  0.00  0.00  0.79  0.00
  YS02001790YS02001791    1.00   0.00  0.00  0.00  0.01  0.99  0.00  0.00  0.52  0.00
  YS02001791YS02001793    1.00   0.00  0.00  0.00  0.05  0.95  0.00  0.00  0.05  0.00
  YS02001910YS02001907    1.00   0.00  0.00  0.00  0.99  0.00  0.00  0.01  0.13  0.00
  YS02001786YS02001788    1.00   0.00  0.00  0.00  0.12  0.88  0.00  0.00  0.00  0.00
  YS02001915YS02001910    1.00   0.00  0.00  0.00  1.00  0.00  0.00  0.00  0.23  0.00
  YS02001918YS02001915    1.00   0.00  0.00  0.00  0.99  0.01  0.00  0.00  0.83  0.00
  YS02001923YS02001920    1.00   0.00  0.00  0.00  1.00  0.00  0.00  0.00  1.00  0.00
  YS02001926YS02001923    1.00   0.00  0.04  0.00  0.00  0.00  0.96  0.00  0.00  0.00
  YS02001929YS02001926    1.00   0.00  0.06  0.00  0.94  0.00  0.00  0.00  0.86  0.00
  YS02001920YS02001918    1.00   0.00  0.00  0.00  1.00  0.00  0.00  0.00  0.00  0.00
  YS02001629YS02163301    1.00   0.09  0.01  0.00  0.91  0.00  0.00  0.00  0.00  0.00
  YS02001619YS02001622    1.00   0.06  0.00  0.00  0.94  0.00  0.00  0.00  0.00  0.00
  YS02001622YS02001625    1.00   0.06  0.00  0.00  0.94  0.00  0.00  0.00  0.11  0.00
  YS02001625YS02001629    1.00   0.06  0.05  0.00  0.87  0.00  0.02  0.00  0.00  0.00
  YS02163301YS02001633    1.00   0.00  0.09  0.00  0.91  0.00  0.00  0.00  0.00  0.00
  YS02163601YS02164001    1.00   0.00  0.04  0.00  0.96  0.00  0.00  0.00  0.00  0.00
  YS02164001YS02001641    1.00   0.00  0.04  0.00  0.96  0.00  0.00  0.00  0.07  0.00
  YS02001641YS02001644    1.00   0.00  0.00  0.00  1.00  0.00  0.00  0.00  0.00  0.00
  YS02001647YS02001649    1.00   0.00  0.10  0.00  0.90  0.00  0.00  0.00  0.01  0.00
  YS02006553YS02006556    1.00   0.00  0.00  0.00  1.00  0.00  0.00  0.00  0.03  0.00
  YS02006556YS02006558    1.00   0.00  0.00  0.00  1.00  0.00  0.00  0.00  0.00  0.00
  YSB6556YSB1171          1.00   0.02  0.04  0.00  0.95  0.00  0.00  0.00  0.00  0.00
  YS02001907YS02006553    1.00   0.00  0.01  0.00  0.99  0.00  0.00  0.00  0.00  0.00
  YS02006558YS02006561    1.00   0.10  0.00  0.00  0.00  0.90  0.00  0.00  0.74  0.00
  YS02001633YS02163601    1.00   0.00  0.00  0.00  1.00  0.00  0.00  0.00  0.19  0.00
  YS02001644YS02001647    1.00   0.00  0.10  0.00  0.90  0.00  0.00  0.00  0.00  0.00
  YS02001745YS02001748    1.00   0.00  0.00  0.00  0.83  0.01  0.00  0.16  0.12  0.00
  YS02001748YS02001751    1.00   0.00  0.00  0.00  0.95  0.05  0.00  0.00  0.22  0.00
  YS02001751YS02001754    1.00   0.00  0.00  0.00  0.88  0.00  0.00  0.11  0.02  0.00
  YS02001754YS02001757    1.00   0.00  0.00  0.00  1.00  0.00  0.00  0.00  0.25  0.00
  YS02001882YS02001884    1.00   0.08  0.01  0.00  0.91  0.00  0.00  0.00  0.00  0.00
  YS02001884YS02001887    1.00   0.03  0.02  0.00  0.95  0.00  0.00  0.00  0.00  0.00
  YS02001890YS02001895    1.00   0.00  0.09  0.00  0.91  0.00  0.00  0.00  0.00  0.00
  YS02001895YS02001898    1.00   0.09  0.00  0.00  0.89  0.00  0.02  0.00  0.00  0.00
  YS02001898YS02001901    1.00   0.09  0.01  0.00  0.91  0.00  0.00  0.00  0.02  0.00
  YS02001901YS02001904    1.00   0.09  0.00  0.00  0.91  0.00  0.00  0.00  0.00  0.00
  YS02001904YS02001907    1.00   0.00  0.09  0.00  0.91  0.00  0.00  0.00  0.00  0.00
  YS02001887YS02001890    1.00   0.00  0.00  0.00  0.99  0.00  0.01  0.00  0.00  0.00
  YS02001652YS02001649    1.00   0.00  0.00  0.00  1.00  0.00  0.00  0.00  0.24  0.00
  YS02001655YS02001652    1.00   0.00  0.00  0.00  0.88  0.00  0.00  0.11  0.02  0.00
  YS02001658YS02001655    1.00   0.00  0.08  0.00  0.87  0.05  0.00  0.00  0.11  0.00
  YS02001661YS02001658    1.00   0.07  0.00  0.00  0.83  0.10  0.00  0.00  0.16  0.00
  YS02001664YS02001661    1.00   0.06  0.00  0.00  0.83  0.11  0.00  0.00  0.80  0.00
  YSB1154YSB6556          1.00   0.05  0.00  0.00  0.95  0.00  0.00  0.00  0.02  0.00
  YSB1174YSB1171          1.00   0.02  0.02  0.00  0.96  0.00  0.00  0.00  0.00  0.00
  YSB1171HS02004479       1.00   0.02  0.00  0.00  0.97  0.00  0.00  0.01  0.13  0.00
  HS02004881HS02006253    1.00   0.03  0.00  0.00  0.55  0.00  0.00  0.43  0.24  0.00
  YS02001793JiankangQianchi    1.00   0.00  0.00  0.00  0.61  0.39  0.00  0.00  0.65  0.00
  YS02001757CaochengTiaoxuchi    1.00   0.00  0.13  0.00  0.87  0.00  0.00  0.00  0.00  0.00
  WSF200WS02003060        1.00   0.00  0.01  0.00  0.84  0.16  0.00  0.00  0.64  0.00
  1                       1.00   0.00  0.00  0.00  0.00  1.00  0.00  0.00  0.58  0.00
  
  
  *************************
  Conduit Surcharge Summary
  *************************
  
  ----------------------------------------------------------------------------
                                                           Hours        Hours 
                         --------- Hours Full --------   Above Full   Capacity
  Conduit                Both Ends  Upstream  Dnstream   Normal Flow   Limited
  ----------------------------------------------------------------------------
  WS02006229WS02006228        0.91      0.95      0.91      1.90         0.91
  WS02006256WS02006235        4.01      4.01      5.98      2.95         0.01
  WS02006253WS02006251        0.55      0.55      0.56      0.01         0.01
  WS02006252WS02006251        0.60      0.60      0.97      0.86         0.01
  WS02006251WS02006249        0.56      0.56      0.58      0.48         0.34
  WS02006249WS02006248        0.57      0.57      0.58      1.86         0.01
  WS02006248WS02006247        0.58      0.58      0.63      0.01         0.01
  WS02006247WS02006245        0.63      0.64      0.63      1.91         0.62
  WS02006245WS02006243        0.64      0.64      0.68      0.32         0.20
  WS02006243WS02006242        0.70      0.70      0.95      0.01         0.01
  WS02006242WS02006240        0.81      0.81      1.05      0.98         0.01
  WS02006240WS02006239        0.83      0.83      0.85      0.59         0.42
  WS02006239WS02006238        0.91      0.94      0.94      0.63         0.44
  WS02006238WS02006235        0.93      0.93      1.13      0.01         0.01
  WS02006235WS02006234        0.83      0.83      0.91      3.93         0.01
  WS02006234WS02006232        0.86      0.86      1.14      0.44         0.44
  WS02006232WS02006231        0.54      0.54      1.14      0.50         0.01
  WS02006231WS02006230        0.22      0.22      0.56      4.28         0.01
  WS02006230WS02006229        1.66      1.79      1.66      4.74         1.66
  WS02006228WS02006109        0.93      1.47      0.93      3.15         0.93
  WS02006112WS02006115        0.01      0.01      0.48      0.01         0.01
  WS02006111WS02006112        0.01      0.01      2.38      0.01         0.01
  WS02006110WS02006113        0.01      0.01      1.25      0.01         0.01
  WS02006109WS02006110        0.42      0.42      1.47      0.42         0.01
  WS02004405WS02004406        0.01      0.01      0.01      0.39         0.01
  WS02004404WS02004405        0.01      0.01      0.01      4.56         0.01
  WS02003072WS02003073        0.01      0.01      0.01      3.46         0.01
  YS02001759YS02001757        5.18      5.18      5.38      0.01         0.01
  YS02001762YS02001759        5.06      5.06      5.18      0.01         0.01
  YS02001765YS02001762        4.88      4.88      5.06      0.01         0.01
  YS02001770YS02001767        4.74      4.75      4.78      0.01         0.20
  YS02001774YS02001770        4.66      4.66      4.98      0.01         0.01
  YS02001779YS02001774        4.22      4.22      4.98      0.01         0.01
  YS02001649YS02001757        5.10      5.10      5.38      0.01         0.01
  YS02001767YS02001765        4.78      4.78      4.88      0.01         0.01
  YS02001791YS02001793        0.01      0.01      0.15      0.01         0.01
  YS02001629YS02163301        4.61      4.61      4.70      0.01         0.01
  YS02001619YS02001622        1.28      1.28      1.91      0.01         0.01
  YS02001622YS02001625        1.91      1.91      4.45      0.01         0.01
  YS02001625YS02001629        1.29      1.29      4.45      0.01         0.01
  YS02163301YS02001633        4.70      4.70      4.89      0.01         0.01
  YS02163601YS02164001        4.86      4.86      5.09      0.01         0.01
  YS02164001YS02001641        4.86      4.86      4.94      0.01         0.01
  YS02001641YS02001644        4.92      4.94      4.94      0.01         0.29
  YS02001647YS02001649        4.42      4.42      5.10      0.01         0.01
  YS02001633YS02163601        4.81      4.81      5.09      0.01         0.01
  YS02001644YS02001647        4.42      4.42      4.94      0.01         0.01
  YS02001748YS02001751        0.01      0.01      2.51      0.01         0.01
  YS02001751YS02001754        2.51      2.51      4.30      0.01         0.01
  YS02001754YS02001757        4.43      4.43      5.38      0.01         0.01
  YS02001652YS02001649        4.46      4.46      5.10      0.01         0.01
  YS02001655YS02001652        2.93      2.93      4.39      0.01         0.01
  YS02001658YS02001655        0.01      0.01      2.93      0.01         0.01
  HS02004881HS02006253        0.01      0.01      0.40      0.01         0.01
  YS02001793JiankangQianchi        0.01      0.01      3.09      0.01         0.01
  YS02001757CaochengTiaoxuchi        0.40      0.40      5.38      0.01         0.01
  
  
  ***************
  Pumping Summary
  ***************
  
  ---------------------------------------------------------------------------------------------------------
                                                  Min       Avg       Max     Total     Power    % Time Off
                        Percent   Number of      Flow      Flow      Flow    Volume     Usage    Pump Curve
  Pump                 Utilized   Start-Ups       LPS       LPS       LPS  10^6 ltr     Kw-hr    Low   High
  ---------------------------------------------------------------------------------------------------------
  CC-Pump-1               25.53           1      0.00    184.08    200.00     1.320      2.81    0.0    0.0
  CC-Pump-2               17.02           3      0.00    101.04    200.00     0.600      1.45    0.0    0.0
  JK-Pump-1               48.95           6      0.00    138.90    300.00     2.097     37.55    0.0    0.0
  JK-Pump-2               25.53           4      0.00    199.09    683.00     1.482     28.96    0.0   94.9
  XR-Pump-1               85.09           4      0.00     87.56     95.00     2.052     40.34    0.0    0.0
  XR-Pump-2               85.09           4      0.00     87.56     95.00     2.052     40.34    0.0    0.0
  XR-Pump-3               72.32           6      0.00     84.64     95.00     1.653     31.34    0.0    0.0
  XR-Pump-4               72.32           6      0.00     84.64     95.00     1.653     31.34    0.0    0.0
  
  
  ***************************
  Link Pollutant Load Summary
  ***************************
  
  ------------------------------------------------------------------------------------------
                                 COD            SS            TN            TP         NH4-N
  Link                            kg            kg            kg            kg            kg
  ------------------------------------------------------------------------------------------
  WS02003066WSF200           298.640       497.912        12.013         1.236         6.833
  WS02006287WS02006284       103.965       176.798         6.203         0.719         3.723
  WS02006284WS02006280       104.389       177.481         6.243         0.724         3.748
  WS02006280WS02006229       104.371       177.451         6.242         0.724         3.747
  WS02006229WS02006228       296.544       494.046        11.884         1.220         6.755
  WS02006256WS02006235        73.753       121.588         2.389         0.224         1.312
  WS02006253WS02006251        14.767        26.128         0.465         0.042         0.250
  WS02006252WS02006251       111.490       181.618         3.062         0.256         1.596
  WS02006251WS02006249       123.475       203.230         3.465         0.294         1.816
  WS02006249WS02006248       119.471       196.684         3.354         0.284         1.758
  WS02006248WS02006247       119.605       196.924         3.357         0.285         1.760
  WS02006247WS02006245       119.551       196.842         3.353         0.284         1.757
  WS02006245WS02006243       119.521       196.849         3.342         0.283         1.750
  WS02006243WS02006242       120.293       198.210         3.356         0.284         1.757
  WS02006242WS02006240       122.000       201.088         3.400         0.287         1.780
  WS02006240WS02006239       124.281       204.933         3.461         0.292         1.812
  WS02006239WS02006238       127.143       209.599         3.556         0.301         1.864
  WS02006238WS02006235       128.884       212.326         3.617         0.307         1.899
  WS02006235WS02006234       193.116       318.126         5.714         0.505         3.052
  WS02006234WS02006232       193.283       318.386         5.724         0.506         3.058
  WS02006232WS02006231       193.074       318.036         5.713         0.504         3.052
  WS02006231WS02006230       193.135       318.148         5.717         0.505         3.054
  WS02006230WS02006229       193.011       317.953         5.710         0.504         3.050
  WS02006228WS02006109       295.800       492.877        11.804         1.210         6.705
  WS02006116WS02004401       302.372       503.831        12.258         1.265         6.982
  WS02006115WS02006116       302.852       504.583        12.304         1.271         7.011
  WS02006113WS02006111       302.368       503.394        12.433         1.289         7.098
  WS02006112WS02006115       303.480       505.607        12.355         1.277         7.042
  WS02006111WS02006112       301.919       502.682        12.390         1.283         7.071
  WS02006110WS02006113       302.639       503.837        12.454         1.291         7.111
  WS02006109WS02006110       303.648       505.465        12.543         1.302         7.166
  WS02004411WS02004412       300.244       500.519        12.114         1.248         6.895
  WS02004401WS02004402       301.763       502.846        12.209         1.259         6.951
  WS02004413WS02003067       298.856       498.235        12.025         1.237         6.840
  WS02004412WS02004413       299.661       499.586        12.079         1.244         6.873
  WS02004410WS02004411       300.525       500.957        12.133         1.250         6.906
  WS02004409WS02004410       300.802       501.401        12.151         1.252         6.917
  WS02004407WS02004409       300.811       501.389        12.153         1.252         6.918
  WS02004406WS02004407       300.570       500.965        12.139         1.251         6.910
  WS02004405WS02004406       301.458       502.402        12.205         1.259         6.950
  WS02004404WS02004405       301.620       502.617        12.214         1.260         6.955
  WS02004403WS02004404       300.810       501.323        12.130         1.249         6.903
  WS02004402WS02004403       301.331       502.166        12.170         1.254         6.928
  WS02004139WS02001211      1317.796      2110.809       124.132        15.466        77.432
  WS02004138WS02004139      1323.766      2120.375       124.686        15.535        77.778
  WS02003067WS02003066       298.684       497.984        12.016         1.237         6.836
  WS02001213WS02003059      1347.685      2158.602       127.027        15.829        79.243
  WS02001212WS02001213      1356.849      2173.274       127.905        15.938        79.791
  WS02001211WS02001212      1360.581      2179.252       128.256        15.982        80.011
  WS02003072WS02003073      1739.848      2806.118       148.087        18.197        91.735
  WS02003069WS02003072      1746.152      2816.271       148.679        18.271        92.104
  WS02003060WS02003069      1749.561      2821.730       148.993        18.310        92.299
  WS02003059WS02003060      1343.050      2151.182       126.541        15.767        78.938
  HS02004901HS02004770         2.382         4.283         0.046         0.003         0.021
  HS02004876HS02004881         9.534        17.229         0.294         0.026         0.157
  HS02004870HS02004876         7.421        13.329         0.261         0.024         0.143
  HS02004842HS02004848         1.300         2.255         0.029         0.002         0.013
  HS02004837HS02004842         5.936         9.645         0.496         0.061         0.306
  HS02004830HS02004837        48.229        78.337         4.226         0.522         2.626
  HS02004824HS02004830        48.979        79.538         4.298         0.531         2.671
  HS02004817HS02004824        54.083        88.695         4.432         0.541         2.740
  HS02004770HS02004777         9.213        16.692         0.202         0.013         0.092
  HS02004799HS02004480        41.387        71.331         1.926         0.210         1.112
  HS02004792HS02004799        38.807        66.324         1.925         0.213         1.121
  HS02004788HS02004792        25.879        44.037         1.528         0.175         0.909
  HS02004785HS02004788        10.708        19.096         0.354         0.032         0.187
  HS02004777HS02004785        10.196        18.269         0.307         0.027         0.158
  HS02004480HS02004478        48.945        85.442         2.009         0.213         1.143
  HS02004479HS02004480        11.951        21.118         0.502         0.055         0.292
  HS02004862HS02004870         5.597         9.827         0.224         0.022         0.125
  HS02004848HS02004852         1.490         2.611         0.033         0.002         0.015
  HS02004856HS02004862         2.952         5.391         0.062         0.004         0.029
  HS02004852HS02004856         1.487         2.605         0.033         0.002         0.015
  HS02004802HS02004478        55.323        91.849         4.222         0.510         2.597
  HS02004478WS02006287       104.144       177.091         6.219         0.721         3.733
  HS02004817HS02004807        52.703        86.488         4.301         0.525         2.658
  HS02004807HS02004802        56.023        92.966         4.289         0.519         2.639
  YS02001759YS02001757        85.564       140.466         2.075         0.153         1.053
  YS02001762YS02001759        46.041        76.270         1.272         0.101         0.665
  YS02001765YS02001762        45.654        75.529         1.290         0.103         0.678
  YS02001770YS02001767        43.263        71.591         0.999         0.065         0.492
  YS02001774YS02001770         5.266         8.842         0.133         0.010         0.068
  YS02001779YS02001774         4.233         7.028         0.179         0.018         0.103
  YS02001649YS02001757       127.035       201.988         3.050         0.234         1.505
  YS02001767YS02001765        45.734        75.593         1.309         0.105         0.689
  YS02006561YS02001783       188.350       307.483         5.790         0.523         3.137
  YS02001783YS02001784       188.282       307.386         5.787         0.523         3.135
  YS02001784YS02001785       195.654       319.196         6.500         0.612         3.581
  YS02001788YS02001790       196.335       320.304         6.573         0.621         3.627
  YS02001790YS02001791       197.329       321.903         6.672         0.634         3.689
  YS02001791YS02001793       197.270       321.821         6.666         0.633         3.686
  YS02001910YS02001907        69.052       111.209         3.119         0.319         1.795
  YS02001786YS02001788       195.897       319.594         6.528         0.616         3.599
  YS02001915YS02001910        68.943       110.981         3.077         0.313         1.768
  YS02001918YS02001915        38.919        61.009         2.378         0.275         1.433
  YS02001923YS02001920        18.893        28.959         0.441         0.032         0.222
  YS02001926YS02001923        18.517        28.354         0.402         0.027         0.197
  YS02001929YS02001926        18.227        27.880         0.370         0.023         0.177
  YS02001920YS02001918        38.837        60.878         2.359         0.272         1.421
  YS02001629YS02163301        21.011        33.581         0.486         0.030         0.224
  YS02001619YS02001622        23.945        38.025         0.556         0.034         0.255
  YS02001622YS02001625        23.067        36.737         0.534         0.033         0.245
  YS02001625YS02001629        22.068        35.269         0.509         0.031         0.234
  YS02163301YS02001633        20.933        33.480         0.483         0.030         0.224
  YS02163601YS02164001        59.895        94.895         1.393         0.102         0.682
  YS02164001YS02001641        59.522        94.313         1.372         0.100         0.670
  YS02001641YS02001644        59.935        94.999         1.370         0.099         0.667
  YS02001647YS02001649        95.524       150.904         2.069         0.147         0.997
  YS02006553YS02006556       138.237       225.049         4.583         0.434         2.533
  YS02006556YS02006558       138.211       224.993         4.551         0.429         2.511
  YSB6556YSB1171               5.927        10.587         0.188         0.019         0.105
  YS02001907YS02006553       138.159       224.933         4.580         0.433         2.531
  YS02006558YS02006561       188.355       307.484         5.790         0.523         3.137
  YS02001633YS02163601        60.489        95.753         1.376         0.098         0.668
  YS02001644YS02001647        96.321       152.063         2.088         0.149         1.007
  YS02001745YS02001748        42.134        68.327         1.554         0.143         0.861
  YS02001748YS02001751        44.951        72.917         1.916         0.191         1.092
  YS02001751YS02001754        42.851        69.485         1.918         0.195         1.102
  YS02001754YS02001757        44.169        71.647         2.078         0.216         1.204
  YS02001882YS02001884         0.459         0.715         0.015         0.001         0.008
  YS02001884YS02001887         1.778         2.868         0.050         0.005         0.027
  YS02001890YS02001895        70.097       115.127         1.486         0.117         0.749
  YS02001895YS02001898        69.970       114.947         1.480         0.116         0.745
  YS02001898YS02001901        69.867       114.802         1.478         0.116         0.744
  YS02001901YS02001904        69.947       114.965         1.498         0.119         0.757
  YS02001904YS02001907        70.772       116.329         1.596         0.131         0.819
  YS02001887YS02001890        70.935       116.423         1.550         0.124         0.788
  YS02001652YS02001649        33.574        54.263         1.016         0.088         0.522
  YS02001655YS02001652        34.248        55.280         1.040         0.090         0.534
  YS02001658YS02001655        33.255        53.621         0.839         0.063         0.402
  YS02001661YS02001658        32.648        52.509         0.730         0.048         0.330
  YS02001664YS02001661        32.555        52.285         0.730         0.048         0.330
  YSB1154YSB6556               5.415         9.772         0.125         0.011         0.065
  YSB1174YSB1171               4.143         7.519         0.131         0.013         0.073
  YSB1171HS02004479           11.846        20.959         0.490         0.054         0.285
  HS02004881HS02006253        10.685        19.408         0.312         0.027         0.165
  YS02001793JiankangQianchi       197.410       322.067         6.661         0.632         3.682
  YS02001757CaochengTiaoxuchi       250.197       404.250         6.846         0.565         3.553
  WSF200WS02003060           298.645       497.972        12.017         1.237         6.836
  1                         1745.106      2814.696       148.608        18.263        92.061
  CC-Pump-1                   76.613       124.793         2.105         0.176         1.097
  CC-Pump-2                   34.835        56.757         0.954         0.080         0.497
  JK-Pump-1                   76.755       127.020         2.445         0.228         1.339
  JK-Pump-2                   57.600        93.800         1.893         0.177         1.040
  XR-Pump-1                  372.459       596.556        35.119         4.376        21.909
  XR-Pump-2                  372.459       596.556        35.119         4.376        21.909
  XR-Pump-3                  291.407       466.808        27.411         3.415        17.097
  XR-Pump-4                  291.407       466.808        27.411         3.415        17.097
  

  Analysis begun on:  Sun Jul 11 15:04:03 2021
  Analysis ended on:  Sun Jul 11 15:04:05 2021
  Total elapsed time: 00:00:02