
  EPA STORM WATER MANAGEMENT MODEL - VERSION 5.1 (Build 5.3.0.dev0)
  --------------------------------------------------------------

  WARNING 04: minimum elevation drop used for Conduit WS02004404WS02004405
  WARNING 03: negative offset ignored for Link YS02001904YS02001907
  
  *********************************************************
  NOTE: The summary statistics displayed in this report are
  based on results found at every computational time step,  
  not just on results from each reporting time step.
  *********************************************************
  
  ****************
  Analysis Options
  ****************
  Flow Units ............... LPS
  Process Models:
    Rainfall/Runoff ........ YES
    RDII ................... NO
    Snowmelt ............... NO
    Groundwater ............ NO
    Flow Routing ........... YES
    Ponding Allowed ........ NO
    Water Quality .......... YES
  Infiltration Method ...... HORTON
  Flow Routing Method ...... DYNWAVE
  Surcharge Method ......... EXTRAN
  Starting Date ............ 08/28/2015 08:00:00
  Ending Date .............. 08/28/2015 15:50:00
  Antecedent Dry Days ...... 8.0
  Report Time Step ......... 00:01:00
  Wet Time Step ............ 00:01:00
  Dry Time Step ............ 00:01:00
  Routing Time Step ........ 5.00 sec
  Variable Time Step ....... YES
  Maximum Trials ........... 8
  Number of Threads ........ 4
  Head Tolerance ........... 0.001500 m
  
  
  **************************        Volume         Depth
  Runoff Quantity Continuity     hectare-m            mm
  **************************     ---------       -------
  Total Precipitation ......         2.285         5.003
  Evaporation Loss .........         0.000         0.000
  Infiltration Loss ........         0.509         1.115
  Surface Runoff ...........         1.288         2.820
  Final Storage ............         0.488         1.069
  Continuity Error (%) .....        -0.022
  
  
  **************************           COD            SS            TN            TP         NH4-N
  Runoff Quality Continuity             kg            kg            kg            kg            kg
  **************************    ----------    ----------    ----------    ----------    ----------
  Initial Buildup ..........     41378.656     70582.865      1804.177       168.684      1032.807
  Surface Buildup ..........        14.505        17.862         3.079         0.284         1.823
  Wet Deposition ...........         0.000         0.000         0.000         0.000         0.000
  Sweeping Removal .........         0.000         0.000         0.000         0.000         0.000
  Infiltration Loss ........        21.975        37.993         0.442         0.029         0.207
  BMP Removal ..............         0.000         0.000         0.000         0.000         0.000
  Surface Runoff ...........       718.700      1207.589        14.718         0.947         6.928
  Remaining Buildup ........     40652.255     69354.762      1792.091       167.991      1027.493
  Continuity Error (%) .....         0.001         0.001         0.000         0.000         0.000
  
  
  **************************        Volume        Volume
  Flow Routing Continuity        hectare-m      10^6 ltr
  **************************     ---------     ---------
  Dry Weather Inflow .......         0.616         6.165
  Wet Weather Inflow .......         1.288        12.875
  Groundwater Inflow .......         0.000         0.000
  RDII Inflow ..............         0.000         0.000
  External Inflow ..........         0.102         1.024
  External Outflow .........         1.544        15.439
  Flooding Loss ............         0.221         2.209
  Evaporation Loss .........         0.000         0.000
  Exfiltration Loss ........         0.000         0.000
  Initial Stored Volume ....         0.076         0.761
  Final Stored Volume ......         0.437         4.371
  Continuity Error (%) .....        -5.739
  
  
  **************************           COD            SS            TN            TP         NH4-N
  Quality Routing Continuity            kg            kg            kg            kg            kg
  **************************    ----------    ----------    ----------    ----------    ----------
  Dry Weather Inflow .......      1541.201      2465.922       147.955        18.494        92.472
  Wet Weather Inflow .......       718.446      1207.197        14.713         0.947         6.926
  Groundwater Inflow .......         0.000         0.000         0.000         0.000         0.000
  RDII Inflow ..............         0.000         0.000         0.000         0.000         0.000
  External Inflow ..........       183.418       293.469        17.608         2.201        11.005
  External Outflow .........      1948.000      3158.485       159.750        19.526        98.684
  Flooding Loss ............       103.154       173.778         2.926         0.258         1.565
  Exfiltration Loss ........         0.000         0.000         0.000         0.000         0.000
  Mass Reacted .............         0.000         0.000         0.000         0.000         0.000
  Initial Stored Mass ......         0.000         0.000         0.000         0.000         0.000
  Final Stored Mass ........       220.961       356.919         7.105         0.644         3.836
  Continuity Error (%) .....         6.997         6.994         5.821         5.608         5.723
  
  
  *************************
  Highest Continuity Errors
  *************************
  Node YS02001774 (38.18%)
  Node HS02004842 (26.98%)
  Node JK-storage (-25.98%)
  Node YS02001884 (20.64%)
  Node YSB1171 (6.46%)
  
  
  ***************************
  Time-Step Critical Elements
  ***************************
  Link WS02006252WS02006251 (65.53%)
  Link WS02006280WS02006229 (9.12%)
  Link WS02006238WS02006235 (7.12%)
  Link YS02001793JiankangQianchi (5.54%)
  Link WS02006109WS02006110 (2.07%)
  
  
  ********************************
  Highest Flow Instability Indexes
  ********************************
  Link WS02006113WS02006111 (45)
  Link WS02006111WS02006112 (23)
  Link YS02001779YS02001774 (22)
  Link YS02001774YS02001770 (21)
  Link YS02001765YS02001762 (16)
  
  
  *************************
  Routing Time Step Summary
  *************************
  Minimum Time Step           :     0.50 sec
  Average Time Step           :     1.27 sec
  Maximum Time Step           :     5.00 sec
  Percent in Steady State     :    -0.00
  Average Iterations per Step :     4.02
  Percent Not Converging      :    21.72
  
  
  ***************************
  Subcatchment Runoff Summary
  ***************************
  
  ------------------------------------------------------------------------------------------------------------------------------
                            Total      Total      Total      Total     Imperv       Perv      Total       Total     Peak  Runoff
                           Precip      Runon       Evap      Infil     Runoff     Runoff     Runoff      Runoff   Runoff   Coeff
  Subcatchment                 mm         mm         mm         mm         mm         mm         mm    10^6 ltr      LPS
  ------------------------------------------------------------------------------------------------------------------------------
  sub0                       5.00       0.00       0.00       0.35       4.61       0.00       4.61        0.00     1.63   0.921
  sub1                       5.00       0.00       0.00       0.55       4.37       0.00       4.37        0.03     8.95   0.873
  sub2                       5.00       0.00       0.00       1.85       3.07       0.00       3.07        0.03     7.93   0.614
  sub3                       5.00       0.00       0.00       1.85       3.04       0.00       3.04        0.07    16.25   0.608
  sub4                       5.00       0.00       0.00       0.55       4.23       0.00       4.23        0.09    18.09   0.845
  sub5                       5.00       0.00       0.00       0.35       4.56       0.00       4.56        0.05    15.93   0.912
  sub7                       5.00       0.00       0.00       0.45       4.49       0.00       4.49        0.02     5.55   0.898
  sub8                       5.00       0.00       0.00       0.45       4.48       0.00       4.48        0.03     9.86   0.896
  sub9                       5.00       0.00       0.00       0.45       4.48       0.00       4.48        0.02     7.32   0.896
  sub10                      5.00       0.00       0.00       0.40       4.52       0.00       4.52        0.05    15.89   0.903
  sub11                      5.00       0.00       0.00       0.40       4.54       0.00       4.54        0.05    18.52   0.907
  sub12                      5.00       0.00       0.00       0.65       4.31       0.00       4.31        0.04    15.33   0.861
  sub14                      5.00       0.00       0.00       0.45       4.48       0.00       4.48        0.04    14.31   0.895
  sub15                      5.00       0.00       0.00       1.50       3.44       0.00       3.44        0.06    19.44   0.688
  sub16                      5.00       0.00       0.00       1.65       3.31       0.00       3.31        0.03    13.57   0.662
  sub17                      5.00       0.00       0.00       1.60       3.36       0.00       3.36        0.03    11.02   0.672
  sub22                      5.00       0.00       0.00       2.15       2.81       0.00       2.81        0.18    63.24   0.562
  sub23                      5.00       0.00       0.00       1.85       3.11       0.00       3.11        0.15    53.76   0.621
  sub60                      5.00       0.00       0.00       0.60       3.09       0.00       3.09        0.94    85.37   0.618
  sub61                      5.00       0.00       0.00       0.85       3.29       0.00       3.29        1.01   109.19   0.657
  sub62                      5.00       0.00       0.00       0.40       3.53       0.00       3.53        1.09   110.95   0.706
  sub63                      5.00       0.00       0.00       1.45       2.92       0.00       2.92        0.88   102.74   0.584
  sub64                      5.00       0.00       0.00       0.75       2.96       0.00       2.96        0.90    80.98   0.591
  sub65                      5.00       0.00       0.00       0.65       2.99       0.00       2.99        0.92    82.07   0.599
  sub66                      5.00       0.00       0.00       1.45       2.58       0.00       2.58        0.79    74.65   0.515
  sub67                      5.00       0.00       0.00       0.40       3.87       0.00       3.87        1.19   145.10   0.773
  sub68                      5.00       0.00       0.00       0.70       3.49       0.00       3.49        1.07   121.35   0.698
  sub69                      5.00       0.00       0.00       0.75       3.75       0.00       3.75        0.88   123.14   0.750
  sub70                      5.00       3.83       0.00       3.00       4.66       0.00       4.66        1.07    95.86   0.528
  sub71                      5.00       0.00       0.00       0.40       3.38       0.00       3.38        0.80    76.90   0.677
  sub72                      5.00       0.00       0.00       0.35       2.42       0.00       2.42        0.49    36.09   0.483
  1                          5.00       4.54       0.00       1.31       4.79       0.68       5.47        1.29    91.26   0.573
  2                          5.00       0.00       0.00       2.88       1.13       0.22       1.35        0.54    75.56   0.270
  
  
  ****************************
  Subcatchment Washoff Summary
  ****************************
  
  ------------------------------------------------------------------------------------------
                                 COD            SS            TN            TP         NH4-N
  Subcatchment                    kg            kg            kg            kg            kg
  ------------------------------------------------------------------------------------------
  sub0                         0.738         1.376         0.012         0.001         0.006
  sub1                         2.927         5.483         0.055         0.004         0.026
  sub2                         1.661         2.987         0.037         0.002         0.017
  sub3                         3.973         7.033         0.088         0.006         0.040
  sub4                         6.284        11.615         0.130         0.007         0.062
  sub5                         6.730        12.454         0.118         0.009         0.057
  sub7                         1.574         3.021         0.030         0.002         0.014
  sub8                         2.369         4.627         0.048         0.003         0.023
  sub9                         2.001         3.856         0.039         0.002         0.019
  sub10                        5.611        10.531         0.102         0.007         0.049
  sub11                        5.623        10.727         0.105         0.007         0.050
  sub12                        4.746         8.932         0.085         0.006         0.040
  sub14                        4.239         8.090         0.081         0.005         0.039
  sub15                        4.934         8.960         0.097         0.007         0.045
  sub16                        3.179         5.798         0.061         0.004         0.028
  sub17                        2.903         5.244         0.054         0.004         0.025
  sub22                       14.589        25.956         0.284         0.021         0.131
  sub23                        9.029        16.687         0.202         0.013         0.091
  sub60                       45.967        76.448         0.992         0.056         0.473
  sub61                       58.678        97.429         1.150         0.074         0.551
  sub62                       61.946       104.733         1.294         0.076         0.618
  sub63                       44.230        72.618         0.968         0.065         0.440
  sub64                       54.218        86.737         1.050         0.073         0.496
  sub65                       55.590        89.320         1.087         0.074         0.515
  sub66                       33.065        53.561         0.752         0.046         0.346
  sub67                       93.489       157.213         1.710         0.120         0.822
  sub68                       66.328       111.577         1.346         0.085         0.638
  sub69                       62.891       107.772         1.230         0.082         0.583
  sub70                       93.909       160.358         2.002         0.132         0.921
  sub71                       40.997        69.829         0.919         0.049         0.437
  sub72                       26.006        40.757         0.519         0.033         0.248
  1                           47.557        81.859         1.052         0.070         0.476
  2                            7.517        12.132         0.250         0.015         0.104
  ------------------------------------------------------------------------------------------
  System                     875.499      1475.718        17.950         1.161         8.432
  
  
  ******************
  Node Depth Summary
  ******************
  
  ---------------------------------------------------------------------------------
                                 Average  Maximum  Maximum  Time of Max    Reported
                                   Depth    Depth      HGL   Occurrence   Max Depth
  Node                 Type       Meters   Meters   Meters  days hr:min      Meters
  ---------------------------------------------------------------------------------
  WS02001211           JUNCTION     0.70     0.79     5.63     0  07:29        0.79
  WS02001212           JUNCTION     0.42     0.50     5.57     0  07:29        0.50
  WS02001213           JUNCTION     0.66     0.75     5.52     0  07:28        0.75
  WS02003069           JUNCTION     0.46     0.57     5.16     0  07:27        0.57
  WS02003072           JUNCTION     0.53     0.63     5.00     0  07:28        0.63
  WS02003073           JUNCTION     0.32     0.39     4.45     0  07:29        0.39
  WS02003060           JUNCTION     0.41     0.51     5.44     0  07:27        0.51
  WS02003066           JUNCTION     0.23     0.30     5.85     0  05:48        0.30
  WS02003059           JUNCTION     0.72     0.81     5.49     0  07:28        0.81
  WS02003067           JUNCTION     0.56     0.70     6.02     0  05:47        0.70
  WS02004401           JUNCTION     0.67     0.86     6.86     0  05:45        0.85
  WS02004402           JUNCTION     0.70     0.88     6.84     0  05:45        0.88
  WS02004403           JUNCTION     0.72     0.90     6.83     0  05:45        0.90
  WS02004404           JUNCTION     0.80     0.97     6.82     0  05:45        0.97
  WS02004406           JUNCTION     0.81     0.96     6.79     0  05:45        0.96
  WS02004409           JUNCTION     0.49     0.67     6.44     0  05:46        0.67
  WS02004410           JUNCTION     0.51     0.68     6.40     0  05:47        0.68
  WS02004411           JUNCTION     0.52     0.69     6.37     0  05:47        0.69
  WS02004412           JUNCTION     0.54     0.70     6.34     0  05:47        0.70
  WS02004413           JUNCTION     0.69     0.86     6.33     0  05:47        0.86
  WS02004405           JUNCTION     0.80     0.96     6.81     0  05:45        0.96
  WS02006109           JUNCTION     0.75     0.99     7.61     0  05:09        0.98
  WS02006110           JUNCTION     0.75     0.93     7.52     0  05:10        0.93
  WS02006111           JUNCTION     0.22     0.29     7.00     0  04:15        0.29
  WS02006112           JUNCTION     0.84     1.08     6.96     0  05:15        1.06
  WS02006113           JUNCTION     0.34     0.46     7.35     0  05:12        0.46
  WS02006115           JUNCTION     0.56     0.76     6.90     0  05:14        0.76
  WS02006116           JUNCTION     0.64     0.84     6.88     0  05:45        0.84
  WS02006230           JUNCTION     0.74     1.12     7.87     0  05:09        1.12
  WS02006231           JUNCTION     0.50     0.87     8.00     0  05:09        0.86
  WS02006232           JUNCTION     0.64     1.07     8.11     0  05:09        1.06
  WS02006234           JUNCTION     0.57     1.08     8.24     0  05:09        1.07
  WS02006235           JUNCTION     0.61     1.17     8.33     0  05:10        1.16
  WS02006238           JUNCTION     0.64     1.20     8.34     0  05:09        1.19
  WS02006240           JUNCTION     0.55     1.15     8.44     0  05:10        1.14
  WS02006242           JUNCTION     0.61     1.22     8.49     0  05:09        1.22
  WS02006243           JUNCTION     0.50     1.14     8.56     0  05:10        1.13
  WS02006245           JUNCTION     0.49     1.12     8.61     0  05:10        1.11
  WS02006247           JUNCTION     0.50     1.14     8.64     0  05:41        1.13
  WS02006248           JUNCTION     0.45     1.08     8.67     0  05:38        1.08
  WS02006249           JUNCTION     0.47     1.09     8.69     0  04:13        1.09
  WS02006239           JUNCTION     0.60     1.18     8.39     0  05:09        1.18
  WS02006251           JUNCTION     0.45     1.22     8.89     0  05:38        1.13
  WS02006252           JUNCTION     0.32     0.76     9.01     0  05:38        0.67
  WS02006253           JUNCTION     0.48     1.29     8.94     0  05:38        1.16
  WS02006256           JUNCTION     1.43     2.35     9.28     0  00:00        2.35
  WS02004138           JUNCTION     0.16     0.20     7.45     0  00:00        0.19
  WS02004139           JUNCTION     0.65     0.74     5.65     0  07:30        0.74
  WS02004407           JUNCTION     0.22     0.30     6.61     0  05:46        0.30
  WS02006228           JUNCTION     0.75     1.04     7.69     0  05:39        1.03
  WS02006229           JUNCTION     0.73     1.03     7.72     0  05:10        1.03
  WS02006280           JUNCTION     0.05     0.16     8.43     0  02:13        0.16
  WS02006284           JUNCTION     0.34     0.50     8.90     0  02:13        0.50
  WS02006287           JUNCTION     0.07     0.23     9.19     0  02:12        0.23
  WSF200               JUNCTION     0.21     0.31     5.54     0  05:17        0.31
  HS02004901           JUNCTION     0.10     0.25    10.07     0  02:10        0.25
  HS02004881           JUNCTION     0.00     0.03     9.06     0  02:12        0.03
  HS02004876           JUNCTION     0.03     0.11     9.14     0  02:10        0.11
  HS02004870           JUNCTION     0.01     0.05     9.33     0  02:13        0.05
  HS02004862           JUNCTION     0.01     0.05     9.44     0  02:13        0.05
  HS02004856           JUNCTION     0.07     0.11     9.53     0  02:13        0.11
  HS02004852           JUNCTION     0.00     0.03     9.54     0  02:14        0.03
  HS02004848           JUNCTION     0.00     0.03     9.63     0  02:12        0.03
  HS02004842           JUNCTION     0.33     0.36     9.63     0  02:11        0.36
  HS02004837           JUNCTION     0.02     0.05     9.63     0  02:12        0.05
  HS02004830           JUNCTION     0.03     0.07     9.53     0  02:12        0.07
  HS02004824           JUNCTION     0.02     0.04     9.45     0  02:14        0.04
  HS02004817           JUNCTION     0.42     0.54     9.39     0  02:13        0.54
  HS02004807           JUNCTION     0.10     0.22     9.39     0  02:13        0.22
  HS02004802           JUNCTION     0.14     0.25     9.38     0  02:13        0.25
  HS02004799           JUNCTION     0.09     0.28     9.49     0  02:11        0.28
  HS02004792           JUNCTION     0.02     0.11     9.63     0  02:10        0.11
  HS02004788           JUNCTION     0.01     0.08     9.98     0  02:11        0.08
  HS02004785           JUNCTION     0.02     0.15    10.05     0  02:11        0.15
  HS02004777           JUNCTION     0.12     0.27    10.06     0  02:10        0.27
  HS02004770           JUNCTION     0.09     0.24    10.07     0  02:10        0.24
  HS02004480           JUNCTION     0.05     0.22     9.46     0  02:12        0.22
  HS02004479           JUNCTION     0.09     0.26     9.46     0  02:11        0.26
  HS02004478           JUNCTION     0.04     0.14     9.37     0  02:12        0.14
  YS02001745           JUNCTION     0.47     0.65     8.17     0  04:23        0.65
  YS02001748           JUNCTION     0.86     1.10     8.18     0  04:25        1.09
  YS02001751           JUNCTION     1.04     1.30     8.18     0  04:22        1.28
  YS02001754           JUNCTION     1.28     1.59     8.20     0  04:22        1.56
  YS02001762           JUNCTION     1.48     1.81     8.21     0  04:25        1.77
  YS02001765           JUNCTION     1.43     1.77     8.22     0  04:42        1.72
  YS02001767           JUNCTION     1.40     1.75     8.24     0  04:42        1.69
  YS02001770           JUNCTION     1.39     1.77     8.26     0  04:42        1.68
  YS02001774           JUNCTION     1.46     1.85     8.27     0  04:42        1.76
  YS02001779           JUNCTION     1.21     1.58     8.27     0  04:42        1.49
  YS02001882           JUNCTION     0.26     0.49     7.21     0  02:40        0.49
  YS02001884           JUNCTION     0.36     0.59     7.21     0  02:38        0.59
  YS02001759           JUNCTION     1.51     1.85     8.21     0  04:23        1.81
  YS02001887           JUNCTION     0.44     0.67     7.21     0  02:38        0.67
  YS02001890           JUNCTION     0.47     0.70     7.21     0  02:39        0.70
  YS02001898           JUNCTION     0.24     0.46     7.19     0  02:38        0.46
  YS02001901           JUNCTION     0.36     0.58     7.19     0  02:41        0.58
  YS02001904           JUNCTION     0.33     0.56     7.19     0  02:37        0.56
  YS02001907           JUNCTION     0.67     0.90     7.19     0  02:41        0.90
  YS02001910           JUNCTION     0.45     0.68     7.19     0  02:41        0.68
  YS02001915           JUNCTION     0.25     0.47     7.19     0  02:41        0.47
  YS02001918           JUNCTION     0.08     0.12     7.19     0  02:42        0.12
  YS02001619           JUNCTION     0.99     1.51     8.44     0  05:45        1.32
  YS02001629           JUNCTION     1.34     1.85     8.40     0  05:46        1.70
  YS02001641           JUNCTION     1.45     1.86     8.30     0  05:46        1.76
  YS02001644           JUNCTION     1.45     1.83     8.26     0  05:46        1.76
  YS02001652           JUNCTION     1.30     1.67     8.27     0  04:24        1.60
  YS02001655           JUNCTION     1.06     1.47     8.32     0  04:24        1.36
  YS02001920           JUNCTION     0.17     0.22     7.22     0  02:43        0.22
  YS02001923           JUNCTION     0.06     0.09     7.35     0  03:01        0.09
  YS02001926           JUNCTION     0.14     0.18     7.63     0  03:01        0.18
  YS02001929           JUNCTION     0.07     0.09     7.78     0  03:01        0.09
  YS02001658           JUNCTION     0.80     1.22     8.36     0  04:24        1.08
  YS02001661           JUNCTION     0.57     0.79     8.19     0  04:23        0.78
  YS02001664           JUNCTION     0.14     0.28     8.21     0  04:23        0.28
  YS02001622           JUNCTION     1.02     1.52     8.43     0  05:45        1.35
  YS02001633           JUNCTION     1.43     1.91     8.36     0  05:46        1.77
  YS02001649           JUNCTION     1.49     1.85     8.24     0  04:24        1.79
  YS02001757           JUNCTION     1.61     1.95     8.21     0  04:23        1.91
  YS02001895           JUNCTION     0.23     0.45     7.20     0  02:38        0.45
  YS02001625           JUNCTION     1.30     1.78     8.38     0  05:36        1.65
  YS02163301           JUNCTION     1.37     1.88     8.40     0  05:46        1.72
  YS02163601           JUNCTION     1.49     1.94     8.33     0  05:46        1.82
  YS02164001           JUNCTION     1.43     1.86     8.32     0  05:46        1.75
  YS02001647           JUNCTION     1.28     1.62     8.23     0  04:24        1.58
  YSB1154              JUNCTION     0.23     0.40     9.46     0  02:11        0.40
  YSB6556              JUNCTION     0.12     0.29     9.46     0  02:12        0.29
  YSB1174              JUNCTION     0.18     0.35     9.46     0  02:11        0.35
  YSB1171              JUNCTION     0.38     0.56     9.46     0  02:11        0.56
  YS02006553           JUNCTION     0.67     0.91     7.19     0  02:40        0.90
  YS02006561           JUNCTION     0.13     0.25     6.91     0  02:37        0.24
  YS02006556           JUNCTION     0.64     0.88     7.19     0  02:39        0.87
  YS02006558           JUNCTION     0.69     0.92     7.18     0  02:40        0.92
  YS02001783           JUNCTION     0.22     0.68     6.82     0  02:31        0.64
  YS02001784           JUNCTION     0.26     0.74     6.81     0  02:31        0.72
  YS02001786           JUNCTION     0.22     0.74     6.77     0  02:31        0.73
  YS02001788           JUNCTION     0.17     0.78     6.75     0  02:31        0.72
  YS02001790           JUNCTION     0.21     1.37     7.01     0  02:29        1.03
  YS02001791           JUNCTION     0.16     1.28     6.75     0  02:29        1.16
  YS02001793           JUNCTION     0.19     1.79     6.62     0  02:31        1.78
  WSC                  OUTFALL      0.32     0.39     1.06     0  07:29        0.39
  JK-storage           STORAGE      1.42     5.80     6.60     0  02:29        5.80
  CC-storage           STORAGE      0.90     1.14     8.14     0  04:25        1.14
  XR-storage           STORAGE      2.08     5.74     3.74     0  06:05        5.74
  
  
  *******************
  Node Inflow Summary
  *******************
  
  -------------------------------------------------------------------------------------------------
                                  Maximum  Maximum                  Lateral       Total        Flow
                                  Lateral    Total  Time of Max      Inflow      Inflow     Balance
                                   Inflow   Inflow   Occurrence      Volume      Volume       Error
  Node                 Type           LPS      LPS  days hr:min    10^6 ltr    10^6 ltr     Percent
  -------------------------------------------------------------------------------------------------
  WS02001211           JUNCTION      7.35   389.13     0  04:28       0.207        8.43       0.485
  WS02001212           JUNCTION      0.00   390.65     0  04:29           0        8.39       0.285
  WS02001213           JUNCTION      0.00   392.23     0  04:29           0        8.37       0.354
  WS02003069           JUNCTION      0.32   919.22     0  07:27     0.00902        15.5       0.237
  WS02003072           JUNCTION      0.00   919.07     0  07:28           0        15.5       0.283
  WS02003073           JUNCTION      1.82   920.81     0  07:28      0.0514        15.5       0.326
  WS02003060           JUNCTION     16.53   919.03     0  07:26       0.466        15.6       0.225
  WS02003066           JUNCTION      0.00   540.99     0  05:48           0        6.79       0.074
  WS02003059           JUNCTION      0.00   394.76     0  04:29           0        8.35       0.487
  WS02003067           JUNCTION      0.00   540.88     0  05:47           0         6.8       0.150
  WS02004401           JUNCTION      0.00   546.00     0  05:15           0        7.06       0.340
  WS02004402           JUNCTION      0.00   544.92     0  05:15           0        7.04       0.318
  WS02004403           JUNCTION      0.00   544.42     0  05:15           0        7.01       0.285
  WS02004404           JUNCTION      0.16   544.19     0  05:45     0.00457           7       0.210
  WS02004406           JUNCTION      0.00   544.18     0  05:45           0        6.96       0.512
  WS02004409           JUNCTION      0.00   543.68     0  05:46           0        6.92       0.277
  WS02004410           JUNCTION      0.00   542.64     0  05:46           0         6.9       0.309
  WS02004411           JUNCTION      0.00   541.89     0  05:46           0        6.88       0.313
  WS02004412           JUNCTION      0.00   541.37     0  05:47           0        6.86       0.333
  WS02004413           JUNCTION      0.00   541.10     0  05:47           0        6.83       0.483
  WS02004405           JUNCTION      0.04   544.15     0  05:45     0.00107        6.99       0.318
  WS02006109           JUNCTION      1.23   549.47     0  04:14      0.0347        7.17       0.293
  WS02006110           JUNCTION      0.00   549.46     0  04:14           0        7.15       0.306
  WS02006111           JUNCTION      0.00   572.21     0  04:14           0        7.11       0.073
  WS02006112           JUNCTION     11.02   555.25     0  04:15      0.0288        7.14       0.419
  WS02006113           JUNCTION      0.00   550.57     0  05:10           0        7.13       0.167
  WS02006115           JUNCTION      0.00   559.46     0  04:15           0        7.11       0.337
  WS02006116           JUNCTION      0.00   548.91     0  05:14           0        7.08       0.320
  WS02006230           JUNCTION     10.28   532.32     0  05:41        0.29        6.22       0.257
  WS02006231           JUNCTION      0.00   522.43     0  05:41           0        5.94       0.226
  WS02006232           JUNCTION      0.00   522.01     0  05:41           0        5.95       0.310
  WS02006234           JUNCTION      0.00   522.44     0  05:40           0        5.96       0.183
  WS02006235           JUNCTION      0.00   523.31     0  05:41           0        6.04       0.200
  WS02006238           JUNCTION      0.00   394.87     0  04:41           0        3.58       0.277
  WS02006240           JUNCTION      0.00   394.99     0  04:40           0        3.55       0.487
  WS02006242           JUNCTION      0.00   394.90     0  04:40           0        3.54       0.531
  WS02006243           JUNCTION      0.00   395.31     0  04:40           0        3.53       0.400
  WS02006245           JUNCTION      0.00   395.00     0  04:40           0        3.54       0.412
  WS02006247           JUNCTION      0.00   395.32     0  04:40           0        3.55       0.324
  WS02006248           JUNCTION      0.00   395.55     0  04:40           0        3.56       0.265
  WS02006249           JUNCTION      0.00   413.40     0  07:12           0        3.62       0.450
  WS02006239           JUNCTION      0.00   394.85     0  04:41           0        3.56       0.339
  WS02006251           JUNCTION      0.08   406.41     0  07:12     0.00217        3.69       0.453
  WS02006252           JUNCTION      0.00   400.00     0  04:30           0        3.48       0.016
  WS02006253           JUNCTION      1.63   120.05     0  04:11     0.00373       0.224       5.887
  WS02006256           JUNCTION      0.00   983.00     0  00:00           0        4.58      -0.028
  WS02004138           JUNCTION      0.00   380.00     0  00:00           0        8.27       0.072
  WS02004139           JUNCTION      0.32   396.51     0  00:00     0.00905        8.27       0.554
  WS02004407           JUNCTION      0.00   543.84     0  05:46           0        6.93       0.124
  WS02006228           JUNCTION      0.00   548.25     0  04:14           0        7.15       0.244
  WS02006229           JUNCTION      0.00   548.44     0  04:14           0        7.17       0.209
  WS02006280           JUNCTION      0.00   251.15     0  02:13           0       0.973       0.007
  WS02006284           JUNCTION      0.10   251.13     0  02:13      0.0027       0.975       0.118
  WS02006287           JUNCTION      0.00   250.99     0  02:12           0       0.973       0.074
  WSF200               JUNCTION      0.00   541.04     0  05:48           0        6.79       0.071
  HS02004901           JUNCTION     13.57    13.57     0  02:06      0.0347      0.0348       5.313
  HS02004881           JUNCTION      5.55    48.51     0  02:12      0.0151        0.16       0.060
  HS02004876           JUNCTION      8.95    43.24     0  02:12       0.029       0.145       0.363
  HS02004870           JUNCTION      9.86    34.53     0  02:12      0.0286       0.116       0.092
  HS02004862           JUNCTION      8.13    25.38     0  02:12      0.0343      0.0876       0.192
  HS02004856           JUNCTION      7.32    17.36     0  02:12      0.0215      0.0548       2.697
  HS02004852           JUNCTION      0.00    10.55     0  02:12           0      0.0333       0.150
  HS02004848           JUNCTION     16.25    16.25     0  02:14      0.0684      0.0684       0.064
  HS02004842           JUNCTION      0.00     6.24     0  02:22           0      0.0482      36.956
  HS02004837           JUNCTION     22.24    27.57     0  02:11       0.229       0.264       0.309
  HS02004830           JUNCTION      0.15    27.70     0  02:12     0.00423       0.254       0.486
  HS02004824           JUNCTION     18.14    45.67     0  02:14      0.0896       0.343       0.157
  HS02004817           JUNCTION      0.60    46.26     0  02:14      0.0169       0.359       4.864
  HS02004807           JUNCTION     18.52    63.17     0  02:13      0.0527       0.395       1.080
  HS02004802           JUNCTION      0.00    63.54     0  02:15           0       0.391       1.052
  HS02004799           JUNCTION     14.31   160.21     0  02:10      0.0426       0.511       0.459
  HS02004792           JUNCTION     63.52   146.22     0  02:10       0.185       0.469       0.088
  HS02004788           JUNCTION     21.11    85.05     0  02:11       0.106       0.284       0.138
  HS02004785           JUNCTION      0.15    64.42     0  02:10     0.00423        0.18       0.267
  HS02004777           JUNCTION      0.03    64.87     0  02:09    0.000846        0.18       2.954
  HS02004770           JUNCTION     53.76    66.11     0  02:08       0.148       0.181       1.737
  HS02004480           JUNCTION      0.00   188.79     0  02:11           0       0.597       0.121
  HS02004479           JUNCTION      0.00    29.36     0  02:13           0      0.0985       0.746
  HS02004478           JUNCTION      0.00   250.97     0  02:12           0       0.973       0.059
  YS02001745           JUNCTION     85.37    91.71     0  03:20       0.937        0.94       0.449
  YS02001748           JUNCTION      0.04   161.23     0  03:22     0.00127       0.938       1.787
  YS02001751           JUNCTION      0.01   170.54     0  03:21     0.00031       0.918       2.500
  YS02001754           JUNCTION      0.26   108.32     0  02:45     0.00733       0.903       2.825
  YS02001762           JUNCTION      0.00   119.46     0  02:35           0        1.01       2.154
  YS02001765           JUNCTION      0.00   121.04     0  02:29           0        1.02       2.494
  YS02001767           JUNCTION      0.54   133.09     0  02:32      0.0151        1.04       3.600
  YS02001770           JUNCTION    111.10   134.10     0  02:32        1.09         1.1       2.987
  YS02001774           JUNCTION      0.00    44.86     0  02:10           0      0.0662      61.748
  YS02001779           JUNCTION      0.01    32.91     0  02:31    0.000141      0.0265     138.195
  YS02001882           JUNCTION      0.00     4.41     0  02:03           0     0.00614      38.683
  YS02001884           JUNCTION      0.00    13.05     0  02:03           0       0.024      26.012
  YS02001759           JUNCTION    109.23   227.99     0  02:38        1.01        1.99       1.182
  YS02001887           JUNCTION    145.55   146.13     0  02:31        1.21        1.22       0.598
  YS02001890           JUNCTION      0.00   145.99     0  02:31           0        1.19       0.670
  YS02001898           JUNCTION      0.00   146.16     0  02:39           0        1.18       0.191
  YS02001901           JUNCTION      0.00   147.85     0  02:38           0        1.18       0.479
  YS02001904           JUNCTION      0.00   147.51     0  02:40           0        1.18       0.444
  YS02001907           JUNCTION      0.00   267.91     0  02:42           0        2.53       0.885
  YS02001910           JUNCTION      0.00   121.08     0  02:42           0        1.36       0.758
  YS02001915           JUNCTION     76.92   119.28     0  02:49       0.799        1.37       0.340
  YS02001918           JUNCTION      0.00    39.08     0  03:02           0        0.57       0.210
  YS02001619           JUNCTION     74.65    74.65     0  02:43       0.789       0.789       1.523
  YS02001629           JUNCTION      0.00   133.18     0  03:17           0       0.712       4.133
  YS02001641           JUNCTION      0.00   156.87     0  02:47           0        1.53       1.411
  YS02001644           JUNCTION     81.02   239.67     0  02:49       0.899         2.4       1.108
  YS02001652           JUNCTION      0.00   128.87     0  02:42           0       0.843       2.889
  YS02001655           JUNCTION      0.15   136.66     0  03:15     0.00434       0.867       2.855
  YS02001920           JUNCTION      2.87    39.03     0  03:01      0.0809       0.573       0.371
  YS02001923           JUNCTION      0.04    36.16     0  03:01     0.00106       0.492       0.065
  YS02001926           JUNCTION      0.05    36.14     0  03:01     0.00147       0.493       0.462
  YS02001929           JUNCTION     36.09    36.09     0  03:01       0.492       0.492       0.063
  YS02001658           JUNCTION      0.00   171.95     0  03:25           0       0.935       1.686
  YS02001661           JUNCTION      0.00   129.73     0  05:31           0        1.05       0.801
  YS02001664           JUNCTION    102.74   105.22     0  05:24       0.884       0.988       0.076
  YS02001622           JUNCTION      0.00    97.78     0  02:38           0       0.779       4.084
  YS02001633           JUNCTION     82.27   162.32     0  02:43       0.926        1.59       2.060
  YS02001649           JUNCTION      0.00   342.70     0  02:48           0        3.15       1.206
  YS02001757           JUNCTION      0.00   628.82     0  02:46           0        5.92       1.580
  YS02001895           JUNCTION      0.00   145.25     0  02:38           0        1.18       0.323
  YS02001625           JUNCTION      0.00   134.16     0  03:17           0        0.75       5.582
  YS02163301           JUNCTION      0.00    82.83     0  02:39           0       0.695       3.609
  YS02163601           JUNCTION      0.11   160.58     0  02:43      0.0031        1.55       1.978
  YS02164001           JUNCTION      0.00   158.28     0  02:43           0        1.53       1.365
  YS02001647           JUNCTION      0.00   240.95     0  02:49           0        2.36       1.220
  YSB1154              JUNCTION     15.93    15.93     0  02:10      0.0517      0.0529       2.806
  YSB6556              JUNCTION      0.00    15.79     0  02:11           0      0.0538       2.367
  YSB1174              JUNCTION     15.33    15.33     0  02:06      0.0376      0.0385       3.453
  YSB1171              JUNCTION      0.00    29.28     0  02:11           0      0.0978       6.909
  YS02006553           JUNCTION      0.00   265.49     0  02:43           0        2.52       0.573
  YS02006561           JUNCTION      0.00   399.71     0  02:39           0        3.57       0.029
  YS02006556           JUNCTION      0.00   267.66     0  02:42           0        2.52       0.414
  YS02006558           JUNCTION    122.23   387.37     0  02:42         1.1         3.6       0.117
  YS02001783           JUNCTION      0.00   384.62     0  02:37           0        3.57       0.043
  YS02001784           JUNCTION      1.06   427.53     0  02:31      0.0299        3.59       0.068
  YS02001786           JUNCTION      0.06   422.35     0  02:32     0.00159        3.59       0.069
  YS02001788           JUNCTION      0.07   469.34     0  02:37       0.002        3.59       0.039
  YS02001790           JUNCTION      0.15   528.88     0  02:36     0.00437         3.6       0.021
  YS02001791           JUNCTION      0.00   576.50     0  02:37           0         3.6       0.028
  YS02001793           JUNCTION      0.00   612.59     0  02:37           0         3.6      -0.026
  WSC                  OUTFALL       0.00   920.71     0  07:29           0        15.4       0.000
  JK-storage           STORAGE       0.00   649.57     0  02:40           0        3.75     -20.622
  CC-storage           STORAGE       0.00   630.30     0  02:45           0        5.83       0.852
  XR-storage           STORAGE     354.14   354.14     0  02:41        7.46        8.06      -2.444
  
  
  **********************
  Node Surcharge Summary
  **********************
  
  Surcharging occurs when water rises above the top of the highest conduit.
  ---------------------------------------------------------------------
                                               Max. Height   Min. Depth
                                   Hours       Above Crown    Below Rim
  Node                 Type      Surcharged         Meters       Meters
  ---------------------------------------------------------------------
  WS02006109           JUNCTION        1.86          0.172        1.648
  WS02006110           JUNCTION        0.40          0.024        1.826
  WS02006112           JUNCTION        0.70          0.077        1.603
  WS02006230           JUNCTION        0.30          0.044        1.526
  WS02006231           JUNCTION        0.75          0.163        1.367
  WS02006232           JUNCTION        2.16          0.373        1.107
  WS02006234           JUNCTION        1.38          0.361        0.879
  WS02006235           JUNCTION        1.75          0.457        0.833
  WS02006238           JUNCTION        1.92          0.476        0.954
  WS02006240           JUNCTION        1.45          0.435        0.955
  WS02006242           JUNCTION        1.82          0.494        0.326
  WS02006243           JUNCTION        1.28          0.425        0.345
  WS02006245           JUNCTION        1.18          0.414        0.436
  WS02006247           JUNCTION        1.25          0.426        0.334
  WS02006248           JUNCTION        1.05          0.363        0.017
  WS02006249           JUNCTION        1.14          0.390        0.000
  WS02006239           JUNCTION        1.58          0.438        0.852
  WS02006251           JUNCTION        0.39          0.195        0.985
  WS02006252           JUNCTION        1.84          0.365        0.735
  WS02006253           JUNCTION        0.41          0.251        2.229
  WS02006256           JUNCTION        6.18          2.050        0.000
  WS02006228           JUNCTION        1.79          0.206        1.994
  YS02001748           JUNCTION        0.04          0.019        1.171
  YS02001751           JUNCTION        4.17          0.303        0.897
  YS02001754           JUNCTION        4.74          0.539        0.611
  YS02001762           JUNCTION        5.37          0.814        0.336
  YS02001765           JUNCTION        5.32          0.774        0.326
  YS02001767           JUNCTION        5.27          0.752        0.278
  YS02001770           JUNCTION        5.19          0.737        0.183
  YS02001774           JUNCTION        5.36          0.845        0.205
  YS02001779           JUNCTION        4.66          0.585        0.095
  YS02001759           JUNCTION        5.40          0.846        0.364
  YS02001619           JUNCTION        3.89          0.513        0.097
  YS02001629           JUNCTION        3.88          0.470        0.000
  YS02001641           JUNCTION        5.34          0.859        0.241
  YS02001644           JUNCTION        5.34          0.825        0.095
  YS02001652           JUNCTION        4.83          0.645        0.485
  YS02001655           JUNCTION        4.33          0.468        0.732
  YS02001658           JUNCTION        0.34          0.218        1.082
  YS02001622           JUNCTION        4.07          0.524        0.096
  YS02001633           JUNCTION        5.31          0.890        0.170
  YS02001649           JUNCTION        5.38          0.849        0.201
  YS02001757           JUNCTION        5.50          0.949        0.261
  YS02001625           JUNCTION        4.92          0.780        0.000
  YS02163301           JUNCTION        5.23          0.880        0.150
  YS02163601           JUNCTION        5.38          0.937        0.143
  YS02164001           JUNCTION        5.32          0.858        0.242
  YS02001647           JUNCTION        4.87          0.620        0.280
  YS02001790           JUNCTION        0.37          0.568        0.589
  YS02001791           JUNCTION        0.44          0.484        1.436
  YS02001793           JUNCTION        0.65          0.792        1.808
  
  
  *********************
  Node Flooding Summary
  *********************
  
  Flooding refers to all water that overflows a node, whether it ponds or not.
  --------------------------------------------------------------------------
                                                             Total   Maximum
                                 Maximum   Time of Max       Flood    Ponded
                        Hours       Rate    Occurrence      Volume     Depth
  Node                 Flooded       LPS   days hr:min    10^6 ltr    Meters
  --------------------------------------------------------------------------
  WS02006249              0.33     82.72      0  05:09       0.044     0.000
  WS02006256              2.29    978.40      0  00:00       2.053     0.000
  YS02001629              0.01      6.51      0  05:46       0.000     0.000
  YS02001625              0.01      7.83      0  05:46       0.000     0.000
  JK-storage              0.22    283.32      0  03:31       0.112     0.000
  
  
  **********************
  Storage Volume Summary
  **********************
  
  --------------------------------------------------------------------------------------------------
                         Average     Avg  Evap Exfil       Maximum     Max    Time of Max    Maximum
                          Volume    Pcnt  Pcnt  Pcnt        Volume    Pcnt     Occurrence    Outflow
  Storage Unit           1000 m3    Full  Loss  Loss       1000 m3    Full    days hr:min        LPS
  --------------------------------------------------------------------------------------------------
  JK-storage               0.071      24     0     0         0.291     100       0  02:29     983.00
  CC-storage               2.508      16     0     0         3.187      20       0  04:25     400.00
  XR-storage               0.249      27     0     0         0.689      74       0  06:05     380.00
  
  
  ***********************
  Outfall Loading Summary
  ***********************
  
  ---------------------------------------------------------------------------------------------------------------------------------
                         Flow       Avg       Max       Total         Total         Total         Total         Total         Total
                         Freq      Flow      Flow      Volume           COD            SS            TN            TP         NH4-N
  Outfall Node           Pcnt       LPS       LPS    10^6 ltr            kg            kg            kg            kg            kg
  ---------------------------------------------------------------------------------------------------------------------------------
  WSC                   99.98    645.60    920.71      15.439      1948.095      3158.637       159.759        19.527        98.689
  ---------------------------------------------------------------------------------------------------------------------------------
  System                99.98    645.60    920.71      15.439      1948.095      3158.637       159.759        19.527        98.689
  
  
  ********************
  Link Flow Summary
  ********************
  
  -----------------------------------------------------------------------------
                                 Maximum  Time of Max   Maximum    Max/    Max/
                                  |Flow|   Occurrence   |Veloc|    Full    Full
  Link                 Type          LPS  days hr:min     m/sec    Flow   Depth
  -----------------------------------------------------------------------------
  WS02003066WSF200     CONDUIT    541.04     0  05:48      2.86    0.09    0.23
  WS02006287WS02006284 CONDUIT    251.04     0  02:13      1.73    0.12    0.24
  WS02006284WS02006280 CONDUIT    251.15     0  02:13      1.97    0.11    0.22
  WS02006280WS02006229 CONDUIT    251.16     0  02:13      3.17    0.05    0.16
  WS02006229WS02006228 CONDUIT    548.25     0  04:14      1.09    1.82    1.00
  WS02006256WS02006235 CONDUIT    288.60     0  00:00      4.23    3.05    1.00
  WS02006253WS02006251 CONDUIT    117.74     0  04:11      0.53    0.35    1.00
  WS02006252WS02006251 CONDUIT    401.82     0  07:12      3.20    1.47    1.00
  WS02006251WS02006249 CONDUIT    413.40     0  07:12      1.09    1.19    1.00
  WS02006249WS02006248 CONDUIT    395.55     0  04:40      1.11    2.17    1.00
  WS02006248WS02006247 CONDUIT    395.32     0  04:40      1.08    0.86    1.00
  WS02006247WS02006245 CONDUIT    395.00     0  04:40      1.05    3.13    1.00
  WS02006245WS02006243 CONDUIT    395.31     0  04:40      1.06    1.17    1.00
  WS02006243WS02006242 CONDUIT    394.90     0  04:40      1.03    0.84    1.00
  WS02006242WS02006240 CONDUIT    394.99     0  04:40      1.03    1.57    1.00
  WS02006240WS02006239 CONDUIT    394.85     0  04:41      1.03    1.24    1.00
  WS02006239WS02006238 CONDUIT    394.87     0  04:41      1.03    1.26    1.00
  WS02006238WS02006235 CONDUIT    394.86     0  04:41      1.46    0.88    1.00
  WS02006235WS02006234 CONDUIT    522.44     0  05:40      1.36    5.51    1.00
  WS02006234WS02006232 CONDUIT    522.01     0  05:41      1.39    1.06    1.00
  WS02006232WS02006231 CONDUIT    522.43     0  05:41      1.36    1.09    1.00
  WS02006231WS02006230 CONDUIT    522.04     0  05:41      1.36    7.92    1.00
  WS02006230WS02006229 CONDUIT    532.54     0  05:09      1.38   11.85    1.00
  WS02006228WS02006109 CONDUIT    548.24     0  04:14      1.09    2.40    1.00
  WS02006116WS02004401 CONDUIT    546.00     0  05:15      0.78    0.75    0.85
  WS02006115WS02006116 CONDUIT    548.91     0  05:14      0.89    0.70    0.77
  WS02006113WS02006111 CONDUIT    572.21     0  04:14      2.48    0.69    0.47
  WS02006112WS02006115 CONDUIT    559.46     0  04:15      0.79    0.33    0.87
  WS02006111WS02006112 CONDUIT    555.10     0  04:15      1.54    0.26    0.68
  WS02006110WS02006113 CONDUIT    550.57     0  05:10      1.30    0.50    0.79
  WS02006109WS02006110 CONDUIT    549.46     0  04:14      1.09    1.06    1.00
  WS02004411WS02004412 CONDUIT    541.37     0  05:47      0.93    0.77    0.70
  WS02004401WS02004402 CONDUIT    544.92     0  05:15      0.75    0.65    0.87
  WS02004413WS02003067 CONDUIT    540.88     0  05:47      1.11    0.23    0.59
  WS02004412WS02004413 CONDUIT    541.10     0  05:47      0.82    0.36    0.78
  WS02004410WS02004411 CONDUIT    541.89     0  05:46      0.94    0.74    0.69
  WS02004409WS02004410 CONDUIT    542.64     0  05:46      0.97    0.70    0.68
  WS02004407WS02004409 CONDUIT    543.68     0  05:46      1.49    0.19    0.48
  WS02004406WS02004407 CONDUIT    543.84     0  05:46      1.05    0.24    0.63
  WS02004405WS02004406 CONDUIT    544.18     0  05:45      0.70    1.07    0.96
  WS02004404WS02004405 CONDUIT    544.11     0  05:45      0.70    5.33    0.96
  WS02004403WS02004404 CONDUIT    544.03     0  05:45      0.71    0.39    0.93
  WS02004402WS02004403 CONDUIT    544.42     0  05:15      0.74    0.78    0.89
  WS02004139WS02001211 CONDUIT    381.79     0  04:28      0.90    0.48    0.59
  WS02004138WS02004139 CONDUIT    396.19     0  00:00      3.65    0.08    0.44
  WS02003067WS02003066 CONDUIT    540.99     0  05:48      1.21    0.17    0.42
  WS02001213WS02003059 CONDUIT    394.76     0  04:29      0.88    0.65    0.77
  WS02001212WS02001213 CONDUIT    392.23     0  04:29      1.32    0.61    0.47
  WS02001211WS02001212 CONDUIT    390.65     0  04:29      0.78    0.30    0.65
  WS02003072WS02003073 CONDUIT    918.99     0  07:28      1.71    1.98    0.48
  WS02003069WS02003072 CONDUIT    919.07     0  07:28      1.61    0.44    0.50
  WS02003060WS02003069 CONDUIT    918.90     0  07:27      1.86    0.36    0.45
  WS02003059WS02003060 CONDUIT    398.35     0  04:30      0.95    0.26    0.66
  HS02004901HS02004770 CONDUIT     12.70     0  02:10      0.05    0.05    0.34
  HS02004876HS02004881 CONDUIT     43.41     0  02:12      0.66    0.46    0.09
  HS02004870HS02004876 CONDUIT     34.50     0  02:13      0.46    0.02    0.11
  HS02004842HS02004848 CONDUIT      6.24     0  02:22      0.03    0.00    0.28
  HS02004837HS02004842 CONDUIT      6.51     0  02:23      0.42    0.00    0.30
  HS02004830HS02004837 CONDUIT     27.55     0  02:12      0.47    0.03    0.08
  HS02004824HS02004830 CONDUIT     27.68     0  02:12      0.51    0.04    0.08
  HS02004817HS02004824 CONDUIT     45.66     0  02:14      0.17    0.02    0.42
  HS02004770HS02004777 CONDUIT     64.84     0  02:09      0.26    0.12    0.36
  HS02004799HS02004480 CONDUIT    159.93     0  02:11      0.66    0.20    0.35
  HS02004792HS02004799 CONDUIT    146.13     0  02:10      0.75    0.09    0.28
  HS02004788HS02004792 CONDUIT     84.96     0  02:11      0.90    0.06    0.14
  HS02004785HS02004788 CONDUIT     64.32     0  02:11      0.57    0.48    0.16
  HS02004777HS02004785 CONDUIT     64.27     0  02:10      0.31    0.08    0.29
  HS02004480HS02004478 CONDUIT    188.78     0  02:12      1.05    0.80    0.26
  HS02004479HS02004480 CONDUIT     29.67     0  02:13      0.16    0.03    0.34
  HS02004862HS02004870 CONDUIT     25.33     0  02:13      0.51    0.03    0.07
  HS02004848HS02004852 CONDUIT     10.55     0  02:12      0.34    0.01    0.04
  HS02004856HS02004862 CONDUIT     17.31     0  02:13      0.38    0.02    0.07
  HS02004852HS02004856 CONDUIT     10.48     0  02:14      0.15    0.01    0.10
  HS02004802HS02004478 CONDUIT     64.07     0  02:16      0.33    0.06    0.28
  HS02004478WS02006287 CONDUIT    250.99     0  02:12      1.43    0.07    0.20
  HS02004817HS02004807 CONDUIT     46.95     0  02:16      0.13    0.03    0.54
  HS02004807HS02004802 CONDUIT     63.54     0  02:15      0.28    0.12    0.33
  YS02001759YS02001757 CONDUIT    229.27     0  02:38      0.29    0.16    1.00
  YS02001762YS02001759 CONDUIT    121.31     0  03:11      0.17    0.14    1.00
  YS02001765YS02001762 CONDUIT    119.46     0  02:35      0.24    0.11    1.00
  YS02001770YS02001767 CONDUIT    132.56     0  02:32      0.30    0.53    1.00
  YS02001774YS02001770 CONDUIT     44.86     0  02:10      0.13    0.03    1.00
  YS02001779YS02001774 CONDUIT     32.91     0  02:31      0.08    0.02    1.00
  YS02001649YS02001757 CONDUIT    344.48     0  02:48      0.44    0.21    1.00
  YS02001767YS02001765 CONDUIT    121.04     0  02:29      0.27    0.15    1.00
  YS02006561YS02001783 CONDUIT    384.62     0  02:37      1.89    0.20    0.57
  YS02001783YS02001784 CONDUIT    426.47     0  02:31      1.33    0.59    0.86
  YS02001784YS02001785 CONDUIT    422.30     0  02:32      1.46    0.98    0.92
  YS02001788YS02001790 CONDUIT    528.73     0  02:36      1.98    0.39    0.98
  YS02001790YS02001791 CONDUIT    576.50     0  02:37      2.34    0.63    1.00
  YS02001791YS02001793 CONDUIT    612.59     0  02:37      4.67    0.26    1.00
  YS02001910YS02001907 CONDUIT    121.02     0  02:42      0.49    0.07    0.79
  YS02001786YS02001788 CONDUIT    469.27     0  02:37      1.95    0.90    0.93
  YS02001915YS02001910 CONDUIT    121.08     0  02:42      0.45    0.06    0.58
  YS02001918YS02001915 CONDUIT     42.96     0  02:49      0.44    0.02    0.30
  YS02001923YS02001920 CONDUIT     36.16     0  03:01      0.48    0.02    0.15
  YS02001926YS02001923 CONDUIT     36.12     0  03:01      0.53    0.05    0.14
  YS02001929YS02001926 CONDUIT     36.09     0  03:01      0.56    0.02    0.14
  YS02001920YS02001918 CONDUIT     39.08     0  03:02      0.49    0.04    0.17
  YS02001629YS02163301 CONDUIT     82.83     0  02:39      0.11    0.10    1.00
  YS02001619YS02001622 CONDUIT     97.78     0  02:38      0.67    0.14    1.00
  YS02001622YS02001625 CONDUIT    134.16     0  03:17      0.27    0.07    1.00
  YS02001625YS02001629 CONDUIT    133.18     0  03:17      0.27    0.06    1.00
  YS02163301YS02001633 CONDUIT     80.14     0  02:43      0.10    0.08    1.00
  YS02163601YS02164001 CONDUIT    158.28     0  02:43      0.20    0.14    1.00
  YS02164001YS02001641 CONDUIT    156.87     0  02:47      0.20    0.21    1.00
  YS02001641YS02001644 CONDUIT    158.74     0  02:49      0.20    0.51    1.00
  YS02001647YS02001649 CONDUIT    262.80     0  02:42      0.34    0.14    1.00
  YS02006553YS02006556 CONDUIT    267.66     0  02:42      0.37    0.23    0.87
  YS02006556YS02006558 CONDUIT    266.80     0  02:42      0.36    0.21    0.90
  YSB6556YSB1171       CONDUIT     16.10     0  02:14      0.07    0.02    0.61
  YS02001907YS02006553 CONDUIT    265.49     0  02:43      0.30    0.31    0.99
  YS02006558YS02006561 CONDUIT    399.71     0  02:39      2.52    0.88    0.55
  YS02001633YS02163601 CONDUIT    160.47     0  02:43      0.20    0.17    1.00
  YS02001644YS02001647 CONDUIT    240.95     0  02:49      0.31    0.14    1.00
  YS02001745YS02001748 CONDUIT    161.19     0  03:22      1.47    0.06    0.82
  YS02001748YS02001751 CONDUIT    170.53     0  03:21      1.14    0.09    1.00
  YS02001751YS02001754 CONDUIT    108.06     0  02:45      0.96    0.05    1.00
  YS02001754YS02001757 CONDUIT    106.27     0  03:18      0.33    0.04    1.00
  YS02001882YS02001884 CONDUIT      4.41     0  02:03      0.07    0.01    0.51
  YS02001884YS02001887 CONDUIT     13.05     0  02:03      0.05    0.02    0.61
  YS02001890YS02001895 CONDUIT    145.25     0  02:38      0.31    0.07    0.58
  YS02001895YS02001898 CONDUIT    146.16     0  02:39      0.46    0.25    0.44
  YS02001898YS02001901 CONDUIT    147.85     0  02:38      0.36    0.10    0.52
  YS02001901YS02001904 CONDUIT    147.51     0  02:40      0.32    0.23    0.57
  YS02001904YS02001907 CONDUIT    148.40     0  02:38      0.24    0.05    0.73
  YS02001887YS02001890 CONDUIT    145.99     0  02:31      0.27    0.25    0.66
  YS02001652YS02001649 CONDUIT    123.19     0  02:39      0.31    0.06    1.00
  YS02001655YS02001652 CONDUIT    128.87     0  02:42      1.00    0.06    1.00
  YS02001658YS02001655 CONDUIT    136.51     0  03:15      1.32    0.06    1.00
  YS02001661YS02001658 CONDUIT    171.95     0  03:25      1.53    0.07    0.86
  YS02001664YS02001661 CONDUIT    129.73     0  05:31      1.21    0.04    0.51
  YSB1154YSB6556       CONDUIT     15.79     0  02:11      0.19    0.03    0.50
  YSB1174YSB1171       CONDUIT     14.28     0  02:07      0.06    0.02    0.61
  YSB1171HS02004479    CONDUIT     29.36     0  02:13      0.54    0.02    0.48
  HS02004881HS02006253 CONDUIT     48.50     0  02:12      1.81    0.01    0.50
  YS02001793JiankangQianchi CONDUIT    649.57     0  02:40     14.13    0.05    1.00
  YS02001757CaochengTiaoxuchi CONDUIT    630.30     0  02:45      1.23    0.28    1.00
  WSF200WS02003060     CONDUIT    541.06     0  05:48      2.10    0.12    0.33
  1                    CONDUIT    920.71     0  07:29      3.25    0.32    0.39
  CC-Pump-1            PUMP       200.00     0  04:10              1.00
  CC-Pump-2            PUMP       200.00     0  04:30              1.00
  JK-Pump-1            PUMP       300.00     0  00:00              1.00
  JK-Pump-2            PUMP       683.00     0  00:00              1.00
  XR-Pump-1            PUMP        95.00     0  00:00              1.00
  XR-Pump-2            PUMP        95.00     0  00:00              1.00
  XR-Pump-3            PUMP        95.00     0  00:00              1.00
  XR-Pump-4            PUMP        95.00     0  00:00              1.00
  
  
  ***************************
  Flow Classification Summary
  ***************************
  
  -------------------------------------------------------------------------------------
                      Adjusted    ---------- Fraction of Time in Flow Class ---------- 
                       /Actual         Up    Down  Sub   Sup   Up    Down  Norm  Inlet 
  Conduit               Length    Dry  Dry   Dry   Crit  Crit  Crit  Crit  Ltd   Ctrl  
  -------------------------------------------------------------------------------------
  WS02003066WSF200        1.00   0.02  0.07  0.00  0.00  0.91  0.00  0.00  0.62  0.00
  WS02006287WS02006284    1.00   0.03  0.02  0.00  0.82  0.13  0.00  0.00  0.77  0.00
  WS02006284WS02006280    1.00   0.04  0.00  0.00  0.00  0.00  0.00  0.96  0.00  0.00
  WS02006280WS02006229    1.00   0.04  0.00  0.00  0.00  0.00  0.00  0.96  0.00  0.00
  WS02006229WS02006228    1.00   0.00  0.00  0.00  1.00  0.00  0.00  0.00  0.00  0.00
  WS02006256WS02006235    1.00   0.00  0.00  0.00  1.00  0.00  0.00  0.00  0.00  0.00
  WS02006253WS02006251    1.00   0.01  0.02  0.00  0.96  0.00  0.00  0.00  0.00  0.00
  WS02006252WS02006251    1.00   0.22  0.00  0.00  0.05  0.00  0.73  0.00  0.00  0.00
  WS02006251WS02006249    1.00   0.00  0.00  0.00  1.00  0.00  0.00  0.00  0.44  0.00
  WS02006249WS02006248    1.00   0.00  0.01  0.00  0.86  0.00  0.13  0.00  0.00  0.00
  WS02006248WS02006247    1.00   0.01  0.00  0.00  0.98  0.00  0.00  0.01  0.26  0.00
  WS02006247WS02006245    1.00   0.01  0.00  0.00  0.97  0.00  0.00  0.02  0.00  0.00
  WS02006245WS02006243    1.00   0.00  0.00  0.00  0.91  0.00  0.00  0.08  0.02  0.00
  WS02006243WS02006242    1.00   0.00  0.00  0.00  1.00  0.00  0.00  0.00  0.38  0.00
  WS02006242WS02006240    1.00   0.00  0.00  0.00  1.00  0.00  0.00  0.00  0.00  0.00
  WS02006240WS02006239    1.00   0.00  0.00  0.00  0.92  0.00  0.00  0.07  0.02  0.00
  WS02006239WS02006238    1.00   0.00  0.00  0.00  1.00  0.00  0.00  0.00  0.21  0.00
  WS02006238WS02006235    1.00   0.00  0.00  0.00  1.00  0.00  0.00  0.00  0.00  0.00
  WS02006235WS02006234    1.00   0.00  0.00  0.00  0.94  0.00  0.06  0.00  0.00  0.00
  WS02006234WS02006232    1.00   0.00  0.00  0.00  1.00  0.00  0.00  0.00  0.17  0.00
  WS02006232WS02006231    1.00   0.00  0.00  0.00  1.00  0.00  0.00  0.00  0.00  0.00
  WS02006231WS02006230    1.00   0.00  0.00  0.00  0.72  0.00  0.28  0.00  0.00  0.00
  WS02006230WS02006229    1.00   0.00  0.00  0.00  1.00  0.00  0.00  0.00  0.01  0.00
  WS02006228WS02006109    1.00   0.00  0.00  0.00  1.00  0.00  0.00  0.00  0.00  0.00
  WS02006116WS02004401    1.00   0.01  0.00  0.00  0.99  0.00  0.00  0.00  0.01  0.00
  WS02006115WS02006116    1.00   0.01  0.00  0.00  0.97  0.00  0.00  0.02  0.01  0.00
  WS02006113WS02006111    1.00   0.01  0.00  0.00  0.00  0.99  0.00  0.00  0.18  0.00
  WS02006112WS02006115    1.00   0.01  0.00  0.00  0.99  0.00  0.00  0.00  0.00  0.00
  WS02006111WS02006112    1.00   0.01  0.00  0.00  0.99  0.00  0.00  0.00  0.98  0.00
  WS02006110WS02006113    1.00   0.00  0.00  0.00  0.99  0.00  0.00  0.00  0.00  0.00
  WS02006109WS02006110    1.00   0.00  0.00  0.00  0.99  0.00  0.00  0.00  0.00  0.00
  WS02004411WS02004412    1.00   0.06  0.00  0.00  0.94  0.00  0.00  0.00  0.00  0.00
  WS02004401WS02004402    1.00   0.01  0.00  0.00  0.99  0.00  0.00  0.00  0.01  0.00
  WS02004413WS02003067    1.00   0.06  0.02  0.00  0.00  0.00  0.92  0.00  0.00  0.00
  WS02004412WS02004413    1.00   0.06  0.00  0.00  0.94  0.00  0.00  0.00  0.01  0.00
  WS02004410WS02004411    1.00   0.06  0.00  0.00  0.94  0.00  0.00  0.00  0.00  0.00
  WS02004409WS02004410    1.00   0.06  0.00  0.00  0.94  0.00  0.00  0.00  0.00  0.00
  WS02004407WS02004409    1.00   0.06  0.00  0.00  0.94  0.00  0.00  0.00  0.78  0.00
  WS02004406WS02004407    1.00   0.00  0.06  0.00  0.94  0.00  0.00  0.00  0.00  0.00
  WS02004405WS02004406    1.00   0.00  0.00  0.00  1.00  0.00  0.00  0.00  0.02  0.00
  WS02004404WS02004405    1.00   0.00  0.00  0.00  1.00  0.00  0.00  0.00  0.00  0.00
  WS02004403WS02004404    1.00   0.00  0.01  0.00  0.99  0.00  0.00  0.00  0.02  0.00
  WS02004402WS02004403    1.00   0.01  0.00  0.00  0.99  0.00  0.00  0.00  0.00  0.00
  WS02004139WS02001211    1.00   0.00  0.00  0.00  1.00  0.00  0.00  0.00  0.00  0.00
  WS02004138WS02004139    1.00   0.00  0.00  0.00  1.00  0.00  0.00  0.00  1.00  0.00
  WS02003067WS02003066    1.00   0.08  0.01  0.00  0.92  0.00  0.00  0.00  0.00  0.00
  WS02001213WS02003059    1.00   0.00  0.00  0.00  1.00  0.00  0.00  0.00  0.00  0.00
  WS02001212WS02001213    1.00   0.00  0.00  0.00  0.89  0.00  0.11  0.00  0.00  0.00
  WS02001211WS02001212    1.00   0.00  0.00  0.00  1.00  0.00  0.00  0.00  0.00  0.00
  WS02003072WS02003073    1.00   0.00  0.00  0.00  0.00  0.00  0.00  1.00  0.00  0.00
  WS02003069WS02003072    1.00   0.00  0.00  0.00  1.00  0.00  0.00  0.00  0.17  0.00
  WS02003060WS02003069    1.00   0.00  0.00  0.00  0.98  0.02  0.00  0.00  0.13  0.00
  WS02003059WS02003060    1.00   0.00  0.00  0.00  1.00  0.00  0.00  0.00  0.00  0.00
  HS02004901HS02004770    1.00   0.04  0.00  0.00  0.96  0.00  0.00  0.00  0.02  0.00
  HS02004876HS02004881    1.00   0.01  0.00  0.00  0.99  0.00  0.00  0.00  0.00  0.00
  HS02004870HS02004876    1.00   0.00  0.00  0.00  1.00  0.00  0.00  0.00  0.95  0.00
  HS02004842HS02004848    1.00   0.00  0.04  0.00  0.96  0.00  0.00  0.00  0.66  0.00
  HS02004837HS02004842    1.00   0.00  0.00  0.00  1.00  0.00  0.00  0.00  0.11  0.00
  HS02004830HS02004837    1.00   0.00  0.00  0.00  1.00  0.00  0.00  0.00  0.99  0.00
  HS02004824HS02004830    1.00   0.00  0.00  0.00  1.00  0.00  0.00  0.00  0.00  0.00
  HS02004817HS02004824    1.00   0.00  0.00  0.00  1.00  0.00  0.00  0.00  1.00  0.00
  HS02004770HS02004777    1.00   0.00  0.04  0.00  0.96  0.00  0.00  0.00  0.06  0.00
  HS02004799HS02004480    1.00   0.00  0.01  0.00  0.95  0.00  0.04  0.00  0.00  0.00
  HS02004792HS02004799    1.00   0.00  0.00  0.00  1.00  0.00  0.00  0.00  0.98  0.00
  HS02004788HS02004792    1.00   0.00  0.00  0.00  1.00  0.00  0.00  0.00  0.98  0.00
  HS02004785HS02004788    1.00   0.00  0.00  0.00  1.00  0.00  0.00  0.00  0.00  0.00
  HS02004777HS02004785    1.00   0.00  0.00  0.00  1.00  0.00  0.00  0.00  0.18  0.00
  HS02004480HS02004478    1.00   0.04  0.00  0.00  0.83  0.00  0.00  0.13  0.00  0.00
  HS02004479HS02004480    1.00   0.01  0.00  0.00  0.99  0.00  0.00  0.00  0.15  0.00
  HS02004862HS02004870    1.00   0.00  0.00  0.00  1.00  0.00  0.00  0.00  0.05  0.00
  HS02004848HS02004852    1.00   0.04  0.00  0.00  0.96  0.00  0.00  0.00  0.72  0.00
  HS02004856HS02004862    1.00   0.00  0.06  0.00  0.94  0.00  0.00  0.00  0.76  0.00
  HS02004852HS02004856    1.00   0.04  0.01  0.00  0.95  0.00  0.00  0.00  0.83  0.00
  HS02004802HS02004478    1.00   0.04  0.01  0.00  0.95  0.00  0.00  0.00  0.01  0.00
  HS02004478WS02006287    1.00   0.05  0.00  0.00  0.90  0.05  0.00  0.00  0.76  0.00
  HS02004817HS02004807    1.00   0.00  0.04  0.00  0.96  0.00  0.00  0.00  0.00  0.00
  HS02004807HS02004802    1.00   0.04  0.00  0.00  0.96  0.00  0.00  0.00  0.01  0.00
  YS02001759YS02001757    1.00   0.00  0.00  0.00  1.00  0.00  0.00  0.00  0.18  0.00
  YS02001762YS02001759    1.00   0.00  0.00  0.00  1.00  0.00  0.00  0.00  0.04  0.00
  YS02001765YS02001762    1.00   0.00  0.00  0.00  1.00  0.00  0.00  0.00  0.21  0.00
  YS02001770YS02001767    1.00   0.00  0.00  0.00  1.00  0.00  0.00  0.00  0.00  0.00
  YS02001774YS02001770    1.00   0.00  0.04  0.00  0.95  0.00  0.00  0.00  0.05  0.00
  YS02001779YS02001774    1.00   0.00  0.00  0.00  1.00  0.00  0.00  0.00  0.25  0.00
  YS02001649YS02001757    1.00   0.00  0.00  0.00  1.00  0.00  0.00  0.00  0.19  0.00
  YS02001767YS02001765    1.00   0.00  0.00  0.00  1.00  0.00  0.00  0.00  0.01  0.00
  YS02006561YS02001783    1.00   0.07  0.00  0.00  0.02  0.91  0.00  0.00  0.71  0.00
  YS02001783YS02001784    1.00   0.00  0.07  0.00  0.93  0.00  0.00  0.00  0.00  0.00
  YS02001784YS02001785    1.00   0.00  0.00  0.00  1.00  0.00  0.00  0.00  0.24  0.00
  YS02001788YS02001790    1.00   0.00  0.00  0.00  0.10  0.90  0.00  0.00  0.74  0.00
  YS02001790YS02001791    1.00   0.00  0.00  0.00  0.07  0.93  0.00  0.00  0.51  0.00
  YS02001791YS02001793    1.00   0.00  0.00  0.00  0.12  0.88  0.00  0.00  0.04  0.00
  YS02001910YS02001907    1.00   0.00  0.00  0.00  0.99  0.00  0.00  0.01  0.13  0.00
  YS02001786YS02001788    1.00   0.00  0.00  0.00  0.10  0.90  0.00  0.00  0.00  0.00
  YS02001915YS02001910    1.00   0.00  0.00  0.00  1.00  0.00  0.00  0.00  0.22  0.00
  YS02001918YS02001915    1.00   0.00  0.00  0.00  0.99  0.00  0.00  0.00  0.74  0.00
  YS02001923YS02001920    1.00   0.00  0.00  0.00  1.00  0.00  0.00  0.00  1.00  0.00
  YS02001926YS02001923    1.00   0.00  0.02  0.00  0.00  0.00  0.98  0.00  0.00  0.00
  YS02001929YS02001926    1.00   0.00  0.04  0.00  0.96  0.00  0.00  0.00  0.86  0.00
  YS02001920YS02001918    1.00   0.00  0.00  0.00  1.00  0.00  0.00  0.00  0.00  0.00
  YS02001629YS02163301    1.00   0.06  0.00  0.00  0.94  0.00  0.00  0.00  0.00  0.00
  YS02001619YS02001622    1.00   0.04  0.00  0.00  0.96  0.00  0.00  0.00  0.00  0.00
  YS02001622YS02001625    1.00   0.04  0.00  0.00  0.96  0.00  0.00  0.00  0.11  0.00
  YS02001625YS02001629    1.00   0.04  0.03  0.00  0.91  0.00  0.02  0.00  0.00  0.00
  YS02163301YS02001633    1.00   0.00  0.06  0.00  0.94  0.00  0.00  0.00  0.00  0.00
  YS02163601YS02164001    1.00   0.00  0.02  0.00  0.98  0.00  0.00  0.00  0.00  0.00
  YS02164001YS02001641    1.00   0.00  0.02  0.00  0.98  0.00  0.00  0.00  0.07  0.00
  YS02001641YS02001644    1.00   0.00  0.00  0.00  1.00  0.00  0.00  0.00  0.00  0.00
  YS02001647YS02001649    1.00   0.00  0.07  0.00  0.93  0.00  0.00  0.00  0.01  0.00
  YS02006553YS02006556    1.00   0.01  0.00  0.00  0.99  0.00  0.00  0.00  0.03  0.00
  YS02006556YS02006558    1.00   0.00  0.00  0.00  1.00  0.00  0.00  0.00  0.00  0.00
  YSB6556YSB1171          1.00   0.01  0.02  0.00  0.97  0.00  0.00  0.00  0.00  0.00
  YS02001907YS02006553    1.00   0.00  0.01  0.00  0.99  0.00  0.00  0.00  0.00  0.00
  YS02006558YS02006561    1.00   0.07  0.00  0.00  0.00  0.93  0.00  0.00  0.72  0.00
  YS02001633YS02163601    1.00   0.00  0.00  0.00  1.00  0.00  0.00  0.00  0.19  0.00
  YS02001644YS02001647    1.00   0.00  0.07  0.00  0.93  0.00  0.00  0.00  0.00  0.00
  YS02001745YS02001748    1.00   0.00  0.00  0.00  0.89  0.01  0.00  0.10  0.09  0.00
  YS02001748YS02001751    1.00   0.00  0.00  0.00  0.97  0.03  0.00  0.00  0.21  0.00
  YS02001751YS02001754    1.00   0.00  0.00  0.00  0.92  0.00  0.00  0.08  0.02  0.00
  YS02001754YS02001757    1.00   0.00  0.00  0.00  1.00  0.00  0.00  0.00  0.25  0.00
  YS02001882YS02001884    1.00   0.05  0.00  0.00  0.94  0.00  0.00  0.00  0.00  0.00
  YS02001884YS02001887    1.00   0.02  0.01  0.00  0.97  0.00  0.00  0.00  0.00  0.00
  YS02001890YS02001895    1.00   0.00  0.06  0.00  0.94  0.00  0.00  0.00  0.00  0.00
  YS02001895YS02001898    1.00   0.06  0.00  0.00  0.93  0.00  0.01  0.00  0.00  0.00
  YS02001898YS02001901    1.00   0.06  0.00  0.00  0.94  0.00  0.00  0.00  0.02  0.00
  YS02001901YS02001904    1.00   0.06  0.00  0.00  0.94  0.00  0.00  0.00  0.00  0.00
  YS02001904YS02001907    1.00   0.00  0.06  0.00  0.94  0.00  0.00  0.00  0.00  0.00
  YS02001887YS02001890    1.00   0.00  0.00  0.00  0.99  0.00  0.01  0.00  0.00  0.00
  YS02001652YS02001649    1.00   0.00  0.00  0.00  1.00  0.00  0.00  0.00  0.24  0.00
  YS02001655YS02001652    1.00   0.00  0.00  0.00  0.92  0.00  0.00  0.07  0.01  0.00
  YS02001658YS02001655    1.00   0.00  0.05  0.00  0.91  0.04  0.00  0.00  0.08  0.00
  YS02001661YS02001658    1.00   0.05  0.00  0.00  0.89  0.06  0.00  0.00  0.11  0.00
  YS02001664YS02001661    1.00   0.04  0.00  0.00  0.88  0.08  0.00  0.00  0.42  0.00
  YSB1154YSB6556          1.00   0.03  0.00  0.00  0.97  0.00  0.00  0.00  0.02  0.00
  YSB1174YSB1171          1.00   0.01  0.01  0.00  0.97  0.00  0.00  0.00  0.00  0.00
  YSB1171HS02004479       1.00   0.01  0.00  0.00  0.98  0.00  0.00  0.00  0.13  0.00
  HS02004881HS02006253    1.00   0.02  0.00  0.00  0.70  0.00  0.00  0.28  0.42  0.00
  YS02001793JiankangQianchi    1.00   0.00  0.00  0.00  0.54  0.46  0.00  0.00  0.53  0.00
  YS02001757CaochengTiaoxuchi    1.00   0.00  0.08  0.00  0.91  0.00  0.00  0.00  0.00  0.00
  WSF200WS02003060        1.00   0.00  0.02  0.00  0.82  0.16  0.00  0.00  0.56  0.00
  1                       1.00   0.00  0.00  0.00  0.00  1.00  0.00  0.00  0.48  0.00
  
  
  *************************
  Conduit Surcharge Summary
  *************************
  
  ----------------------------------------------------------------------------
                                                           Hours        Hours 
                         --------- Hours Full --------   Above Full   Capacity
  Conduit                Both Ends  Upstream  Dnstream   Normal Flow   Limited
  ----------------------------------------------------------------------------
  WS02006229WS02006228        1.79      1.98      1.79      3.64         1.79
  WS02006256WS02006235        4.76      4.76      6.18      3.20         0.01
  WS02006253WS02006251        1.09      1.09      1.17      0.01         0.01
  WS02006252WS02006251        1.06      1.06      1.84      1.62         0.01
  WS02006251WS02006249        1.09      1.11      1.14      0.86         0.58
  WS02006249WS02006248        1.05      1.05      1.14      3.14         0.01
  WS02006248WS02006247        1.11      1.11      1.25      0.01         0.01
  WS02006247WS02006245        1.18      1.29      1.18      3.34         1.17
  WS02006245WS02006243        1.20      1.23      1.28      0.70         0.53
  WS02006243WS02006242        1.35      1.35      1.81      0.01         0.01
  WS02006242WS02006240        1.45      1.45      2.03      1.97         0.01
  WS02006240WS02006239        1.49      1.54      1.58      1.09         0.64
  WS02006239WS02006238        1.83      1.93      1.92      1.19         0.82
  WS02006238WS02006235        1.83      1.83      2.14      0.01         0.01
  WS02006235WS02006234        1.38      1.38      1.75      4.71         0.01
  WS02006234WS02006232        1.53      1.53      2.15      0.55         0.52
  WS02006232WS02006231        0.75      0.75      2.15      0.68         0.01
  WS02006231WS02006230        0.30      0.30      0.79      4.87         0.01
  WS02006230WS02006229        3.15      3.56      3.15      5.44         3.15
  WS02006228WS02006109        1.86      2.59      1.86      4.54         1.86
  WS02006112WS02006115        0.01      0.01      0.70      0.01         0.01
  WS02006111WS02006112        0.01      0.01      3.66      0.01         0.01
  WS02006110WS02006113        0.01      0.01      2.29      0.01         0.01
  WS02006109WS02006110        0.40      0.40      2.59      0.42         0.01
  WS02004405WS02004406        0.01      0.01      0.01      0.56         0.01
  WS02004404WS02004405        0.01      0.01      0.01      5.47         0.01
  WS02003072WS02003073        0.01      0.01      0.01      5.18         0.01
  YS02001759YS02001757        5.40      5.40      5.50      0.01         0.01
  YS02001762YS02001759        5.37      5.37      5.40      0.01         0.01
  YS02001765YS02001762        5.32      5.32      5.37      0.01         0.01
  YS02001770YS02001767        5.26      5.27      5.27      0.01         0.45
  YS02001774YS02001770        5.19      5.19      5.36      0.01         0.01
  YS02001779YS02001774        4.66      4.66      5.36      0.01         0.01
  YS02001649YS02001757        5.38      5.38      5.50      0.01         0.01
  YS02001767YS02001765        5.27      5.27      5.32      0.01         0.01
  YS02001788YS02001790        0.01      0.01      0.36      0.01         0.01
  YS02001790YS02001791        0.36      0.36      0.44      0.01         0.01
  YS02001791YS02001793        0.44      0.44      0.79      0.01         0.01
  YS02001629YS02163301        5.15      5.15      5.23      0.01         0.01
  YS02001619YS02001622        3.89      3.89      4.07      0.01         0.01
  YS02001622YS02001625        4.07      4.07      4.92      0.01         0.01
  YS02001625YS02001629        3.88      3.88      4.92      0.01         0.01
  YS02163301YS02001633        5.23      5.23      5.33      0.01         0.01
  YS02163601YS02164001        5.32      5.32      5.38      0.01         0.01
  YS02164001YS02001641        5.32      5.32      5.34      0.01         0.01
  YS02001641YS02001644        5.34      5.34      5.34      0.01         0.78
  YS02001647YS02001649        4.87      4.87      5.38      0.01         0.01
  YS02001907YS02006553        0.01      0.01      0.08      0.01         0.01
  YS02001633YS02163601        5.31      5.31      5.38      0.01         0.01
  YS02001644YS02001647        4.87      4.87      5.34      0.01         0.01
  YS02001745YS02001748        0.01      0.01      0.04      0.01         0.01
  YS02001748YS02001751        2.43      2.43      4.17      0.01         0.01
  YS02001751YS02001754        4.17      4.17      4.74      0.01         0.01
  YS02001754YS02001757        4.87      4.87      5.50      0.01         0.01
  YS02001652YS02001649        4.91      4.91      5.38      0.01         0.01
  YS02001655YS02001652        4.33      4.33      4.83      0.01         0.01
  YS02001658YS02001655        0.34      0.34      4.33      0.01         0.01
  YS02001661YS02001658        0.01      0.01      0.34      0.01         0.01
  HS02004881HS02006253        0.01      0.01      0.41      0.01         0.01
  YS02001793JiankangQianchi        0.65      0.65      2.83      0.01         0.01
  YS02001757CaochengTiaoxuchi        3.43      3.43      5.50      0.01         0.01
  
  
  ***************
  Pumping Summary
  ***************
  
  ---------------------------------------------------------------------------------------------------------
                                                  Min       Avg       Max     Total     Power    % Time Off
                        Percent   Number of      Flow      Flow      Flow    Volume     Usage    Pump Curve
  Pump                 Utilized   Start-Ups       LPS       LPS       LPS  10^6 ltr     Kw-hr    Low   High
  ---------------------------------------------------------------------------------------------------------
  CC-Pump-1               48.93           1      0.00    183.94    200.00     2.460      4.23    0.0    0.0
  CC-Pump-2               29.78           4      0.00    101.43    200.00     1.020      2.11    0.0    0.0
  JK-Pump-1               51.06           5      0.00    150.06    300.00     2.254     40.06    0.0    0.0
  JK-Pump-2               38.30           5      0.00    175.90    683.00     2.322     43.39    0.0   97.1
  XR-Pump-1               89.37           4      0.00     89.46     95.00     2.223     44.88    0.0    0.0
  XR-Pump-2               87.24           4      0.00     89.82     95.00     2.166     44.28    0.0    0.0
  XR-Pump-3               82.98           5      0.00     86.79     95.00     1.938     39.42    0.0    0.0
  XR-Pump-4               82.98           5      0.00     86.79     95.00     1.938     39.42    0.0    0.0
  
  
  ***************************
  Link Pollutant Load Summary
  ***************************
  
  ------------------------------------------------------------------------------------------
                                 COD            SS            TN            TP         NH4-N
  Link                            kg            kg            kg            kg            kg
  ------------------------------------------------------------------------------------------
  WS02003066WSF200           392.444       664.217        13.823         1.354         7.686
  WS02006287WS02006284       119.982       208.107         6.504         0.741         3.865
  WS02006284WS02006280       120.407       208.792         6.544         0.746         3.890
  WS02006280WS02006229       120.391       208.763         6.543         0.746         3.890
  WS02006229WS02006228       402.609       680.578        13.590         1.303         7.489
  WS02006256WS02006235        75.669       125.269         2.359         0.216         1.285
  WS02006253WS02006251        21.262        38.050         0.608         0.053         0.321
  WS02006252WS02006251       206.765       343.861         4.584         0.326         2.243
  WS02006251WS02006249       220.392       369.260         5.029         0.367         2.486
  WS02006249WS02006248       216.777       363.257         4.941         0.361         2.442
  WS02006248WS02006247       216.343       362.572         4.933         0.360         2.438
  WS02006247WS02006245       215.777       361.653         4.919         0.359         2.431
  WS02006245WS02006243       215.246       360.837         4.903         0.358         2.422
  WS02006243WS02006242       215.359       361.163         4.908         0.358         2.426
  WS02006242WS02006240       215.954       362.337         4.921         0.359         2.433
  WS02006240WS02006239       216.845       363.977         4.943         0.361         2.444
  WS02006239WS02006238       218.335       366.469         4.998         0.367         2.475
  WS02006238WS02006235       218.985       367.460         5.022         0.370         2.490
  WS02006235WS02006234       286.190       478.311         7.147         0.566         3.650
  WS02006234WS02006232       285.567       477.288         7.139         0.565         3.647
  WS02006232WS02006231       284.670       475.813         7.112         0.563         3.633
  WS02006231WS02006230       283.929       474.611         7.097         0.562         3.626
  WS02006230WS02006229       283.629       474.210         7.099         0.563         3.629
  WS02006228WS02006109       401.653       679.040        13.568         1.302         7.478
  WS02006116WS02004401       405.327       685.317        14.201         1.387         7.886
  WS02006115WS02006116       406.674       687.506        14.239         1.390         7.906
  WS02006113WS02006111       407.113       687.690        14.283         1.394         7.933
  WS02006112WS02006115       408.158       689.948        14.295         1.396         7.938
  WS02006111WS02006112       406.629       686.897        14.274         1.394         7.929
  WS02006110WS02006113       407.866       688.929        14.312         1.397         7.949
  WS02006109WS02006110       409.204       691.123        14.366         1.403         7.980
  WS02004411WS02004412       396.134       670.303        13.969         1.369         7.768
  WS02004401WS02004402       403.937       683.036        14.149         1.382         7.857
  WS02004413WS02003067       393.081       665.246        13.842         1.356         7.696
  WS02004412WS02004413       394.894       668.269        13.928         1.365         7.746
  WS02004410WS02004411       397.165       671.985        14.001         1.372         7.786
  WS02004409WS02004410       398.254       673.771        14.040         1.375         7.807
  WS02004407WS02004409       399.111       675.154        14.064         1.377         7.820
  WS02004406WS02004407       399.333       675.486        14.064         1.377         7.819
  WS02004405WS02004406       401.146       678.453        14.151         1.387         7.870
  WS02004404WS02004405       402.000       679.828        14.148         1.385         7.864
  WS02004403WS02004404       401.614       679.238        14.067         1.374         7.812
  WS02004402WS02004403       402.727       681.067        14.110         1.378         7.836
  WS02004139WS02001211      1381.643      2216.102       128.945        16.045        80.372
  WS02004138WS02004139      1378.583      2211.205       128.652        16.008        80.189
  WS02003067WS02003066       392.673       664.597        13.833         1.355         7.691
  WS02001213WS02003059      1431.086      2295.210       133.691        16.638        83.338
  WS02001212WS02001213      1430.672      2294.542       133.657        16.634        83.317
  WS02001211WS02001212      1431.972      2296.626       133.779        16.649        83.393
  WS02003072WS02003073      1934.523      3136.892       158.346        19.349        97.802
  WS02003069WS02003072      1938.449      3143.236       158.680        19.390        98.008
  WS02003060WS02003069      1938.131      3142.764       158.593        19.378        97.951
  WS02003059WS02003060      1432.694      2297.793       133.834        16.656        83.427
  HS02004901HS02004770         3.152         5.776         0.061         0.004         0.028
  HS02004876HS02004881        12.237        22.588         0.347         0.030         0.182
  HS02004870HS02004876         9.420        17.288         0.301         0.027         0.161
  HS02004842HS02004848         1.682         2.974         0.037         0.002         0.017
  HS02004837HS02004842         6.307        10.339         0.505         0.061         0.310
  HS02004830HS02004837        49.955        81.730         4.258         0.525         2.642
  HS02004824HS02004830        50.706        82.932         4.330         0.534         2.687
  HS02004817HS02004824        57.356        95.134         4.496         0.546         2.771
  HS02004770HS02004777        12.090        22.313         0.260         0.017         0.118
  HS02004799HS02004480        49.992        87.945         2.090         0.221         1.189
  HS02004792HS02004799        46.409        80.906         2.071         0.224         1.189
  HS02004788HS02004792        29.946        51.950         1.609         0.181         0.946
  HS02004785HS02004788        13.584        24.716         0.412         0.036         0.214
  HS02004777HS02004785        13.067        23.880         0.365         0.030         0.185
  HS02004480HS02004478        60.354       107.613         2.221         0.228         1.242
  HS02004479HS02004480        14.771        26.696         0.551         0.059         0.316
  HS02004862HS02004870         7.048        12.647         0.253         0.024         0.139
  HS02004848HS02004852         2.074         3.711         0.045         0.003         0.021
  HS02004856HS02004862         4.004         7.449         0.083         0.005         0.039
  HS02004852HS02004856         2.070         3.704         0.045         0.003         0.020
  HS02004802HS02004478        59.924       100.977         4.309         0.516         2.639
  HS02004478WS02006287       120.159       208.398         6.519         0.743         3.875
  HS02004817HS02004807        55.986        92.943         4.366         0.529         2.690
  HS02004807HS02004802        60.644       102.125         4.379         0.525         2.683
  YS02001759YS02001757       117.898       197.972         2.704         0.194         1.355
  YS02001762YS02001759        62.843       106.390         1.609         0.122         0.827
  YS02001765YS02001762        62.282       105.336         1.622         0.124         0.837
  YS02001770YS02001767        59.778       101.230         1.325         0.085         0.648
  YS02001774YS02001770         4.327         7.357         0.106         0.008         0.054
  YS02001779YS02001774         3.054         5.096         0.141         0.015         0.082
  YS02001649YS02001757       174.103       283.092         3.777         0.271         1.812
  YS02001767YS02001765        62.269       105.243         1.636         0.126         0.846
  YS02006561YS02001783       249.635       416.390         6.966         0.602         3.703
  YS02001783YS02001784       249.569       416.297         6.963         0.602         3.701
  YS02001784YS02001785       256.957       428.137         7.677         0.691         4.147
  YS02001788YS02001790       257.641       429.253         7.751         0.701         4.194
  YS02001790YS02001791       258.711       430.982         7.852         0.713         4.257
  YS02001791YS02001793       258.625       430.846         7.847         0.713         4.254
  YS02001910YS02001907        87.696       143.778         3.504         0.342         1.981
  YS02001786YS02001788       257.196       428.529         7.705         0.695         4.166
  YS02001915YS02001910        87.593       143.562         3.460         0.336         1.951
  YS02001918YS02001915        46.625        73.765         2.529         0.285         1.506
  YS02001923YS02001920        26.610        41.743         0.588         0.042         0.292
  YS02001926YS02001923        26.240        41.146         0.550         0.037         0.268
  YS02001929YS02001926        25.963        40.692         0.518         0.033         0.248
  YS02001920YS02001918        46.549        73.652         2.507         0.282         1.492
  YS02001629YS02163301        29.840        48.700         0.674         0.042         0.311
  YS02001619YS02001622        33.014        53.607         0.748         0.046         0.344
  YS02001622YS02001625        32.235        52.472         0.728         0.045         0.335
  YS02001625YS02001629        31.142        50.848         0.701         0.043         0.323
  YS02163301YS02001633        30.074        49.116         0.677         0.043         0.314
  YS02163601YS02164001        84.336       136.573         1.875         0.134         0.910
  YS02164001YS02001641        84.074       136.153         1.857         0.132         0.899
  YS02001641YS02001644        84.648       137.121         1.858         0.132         0.898
  YS02001647YS02001649       135.199       218.375         2.836         0.200         1.361
  YS02006553YS02006556       181.906       302.419         5.420         0.490         2.937
  YS02006556YS02006558       181.886       302.378         5.385         0.486         2.914
  YSB6556YSB1171               7.591        13.856         0.217         0.021         0.119
  YS02001907YS02006553       181.855       302.350         5.418         0.490         2.936
  YS02006558YS02006561       249.662       416.427         6.966         0.602         3.703
  YS02001633YS02163601        84.919       137.433         1.856         0.131         0.894
  YS02001644YS02001647       136.010       219.577         2.854         0.202         1.370
  YS02001745YS02001748        49.210        81.757         1.315         0.097         0.676
  YS02001748YS02001751        49.987        83.061         1.458         0.117         0.769
  YS02001751YS02001754        48.966        81.459         1.420         0.113         0.747
  YS02001754YS02001757        49.390        82.134         1.533         0.129         0.821
  YS02001882YS02001884         0.663         1.059         0.019         0.002         0.010
  YS02001884YS02001887         2.441         4.033         0.062         0.006         0.033
  YS02001890YS02001895        95.133       159.953         1.932         0.149         0.963
  YS02001895YS02001898        94.998       159.760         1.926         0.148         0.960
  YS02001898YS02001901        94.885       159.600         1.923         0.148         0.958
  YS02001901YS02001904        94.960       159.755         1.945         0.151         0.972
  YS02001904YS02001907        95.804       161.149         2.045         0.164         1.036
  YS02001887YS02001890        95.986       161.272         1.996         0.157         1.003
  YS02001652YS02001649        40.828        67.699         0.972         0.072         0.463
  YS02001655YS02001652        41.368        68.566         0.990         0.074         0.473
  YS02001658YS02001655        40.625        67.345         0.892         0.061         0.409
  YS02001661YS02001658        42.990        70.845         0.936         0.063         0.426
  YS02001664YS02001661        46.474        76.028         1.022         0.068         0.464
  YSB1154YSB6556               7.073        13.032         0.154         0.013         0.079
  YSB1174YSB1171               5.287         9.802         0.151         0.015         0.083
  YSB1171HS02004479           14.661        26.529         0.539         0.057         0.309
  HS02004881HS02006253        13.755        25.516         0.370         0.031         0.192
  YS02001793JiankangQianchi       259.507       432.290         7.895         0.718         4.283
  YS02001757CaochengTiaoxuchi       335.249       554.155         7.621         0.550         3.754
  WSF200WS02003060           392.238       663.894        13.826         1.355         7.689
  1                         1948.095      3158.637       159.759        19.527        98.689
  CC-Pump-1                  146.053       242.846         3.236         0.230         1.583
  CC-Pump-2                   60.740       101.060         1.348         0.096         0.660
  JK-Pump-1                   81.305       134.157         2.531         0.232         1.378
  JK-Pump-2                   85.951       145.314         2.433         0.215         1.302
  XR-Pump-1                  374.005       599.932        34.885         4.341        21.743
  XR-Pump-2                  362.578       581.581        33.835         4.210        21.089
  XR-Pump-3                  321.012       514.865        29.968         3.729        18.679
  XR-Pump-4                  321.012       514.865        29.968         3.729        18.679
  

  Analysis begun on:  Sun Jul 11 15:09:31 2021
  Analysis ended on:  Sun Jul 11 15:09:34 2021
  Total elapsed time: 00:00:03