
  EPA STORM WATER MANAGEMENT MODEL - VERSION 5.1 (Build 5.3.0.dev0)
  --------------------------------------------------------------

  WARNING 04: minimum elevation drop used for Conduit WS02004404WS02004405
  WARNING 03: negative offset ignored for Link YS02001904YS02001907
  
  *********************************************************
  NOTE: The summary statistics displayed in this report are
  based on results found at every computational time step,  
  not just on results from each reporting time step.
  *********************************************************
  
  ****************
  Analysis Options
  ****************
  Flow Units ............... LPS
  Process Models:
    Rainfall/Runoff ........ YES
    RDII ................... NO
    Snowmelt ............... NO
    Groundwater ............ NO
    Flow Routing ........... YES
    Ponding Allowed ........ NO
    Water Quality .......... YES
  Infiltration Method ...... HORTON
  Flow Routing Method ...... DYNWAVE
  Surcharge Method ......... EXTRAN
  Starting Date ............ 08/28/2015 08:00:00
  Ending Date .............. 08/28/2015 15:50:00
  Antecedent Dry Days ...... 8.0
  Report Time Step ......... 00:01:00
  Wet Time Step ............ 00:01:00
  Dry Time Step ............ 00:01:00
  Routing Time Step ........ 5.00 sec
  Variable Time Step ....... YES
  Maximum Trials ........... 8
  Number of Threads ........ 4
  Head Tolerance ........... 0.001500 m
  
  
  **************************        Volume         Depth
  Runoff Quantity Continuity     hectare-m            mm
  **************************     ---------       -------
  Total Precipitation ......         2.737         5.993
  Evaporation Loss .........         0.000         0.000
  Infiltration Loss ........         0.582         1.275
  Surface Runoff ...........         1.604         3.513
  Final Storage ............         0.551         1.207
  Continuity Error (%) .....        -0.022
  
  
  **************************           COD            SS            TN            TP         NH4-N
  Runoff Quality Continuity             kg            kg            kg            kg            kg
  **************************    ----------    ----------    ----------    ----------    ----------
  Initial Buildup ..........     41378.656     70582.865      1804.177       168.684      1032.807
  Surface Buildup ..........        15.412        20.796         2.976         0.274         1.759
  Wet Deposition ...........         0.000         0.000         0.000         0.000         0.000
  Sweeping Removal .........         0.000         0.000         0.000         0.000         0.000
  Infiltration Loss ........        30.040        53.217         0.590         0.040         0.277
  BMP Removal ..............         0.000         0.000         0.000         0.000         0.000
  Surface Runoff ...........       987.868      1696.868        19.907         1.296         9.387
  Remaining Buildup ........     40375.838     68853.027      1786.648       167.622      1024.898
  Continuity Error (%) .....         0.001         0.001         0.000         0.000         0.000
  
  
  **************************        Volume        Volume
  Flow Routing Continuity        hectare-m      10^6 ltr
  **************************     ---------     ---------
  Dry Weather Inflow .......         0.616         6.165
  Wet Weather Inflow .......         1.604        16.036
  Groundwater Inflow .......         0.000         0.000
  RDII Inflow ..............         0.000         0.000
  External Inflow ..........         0.102         1.024
  External Outflow .........         1.696        16.958
  Flooding Loss ............         0.315         3.154
  Evaporation Loss .........         0.000         0.000
  Exfiltration Loss ........         0.000         0.000
  Initial Stored Volume ....         0.076         0.761
  Final Stored Volume ......         0.493         4.928
  Continuity Error (%) .....        -4.399
  
  
  **************************           COD            SS            TN            TP         NH4-N
  Quality Routing Continuity            kg            kg            kg            kg            kg
  **************************    ----------    ----------    ----------    ----------    ----------
  Dry Weather Inflow .......      1541.201      2465.922       147.955        18.494        92.472
  Wet Weather Inflow .......       987.539      1696.350        19.900         1.295         9.384
  Groundwater Inflow .......         0.000         0.000         0.000         0.000         0.000
  RDII Inflow ..............         0.000         0.000         0.000         0.000         0.000
  External Inflow ..........       183.418       293.469        17.608         2.201        11.005
  External Outflow .........      2123.862      3475.927       166.154        20.176       102.283
  Flooding Loss ............       178.956       307.450         4.422         0.362         2.287
  Exfiltration Loss ........         0.000         0.000         0.000         0.000         0.000
  Mass Reacted .............         0.000         0.000         0.000         0.000         0.000
  Initial Stored Mass ......         0.000         0.000         0.000         0.000         0.000
  Final Stored Mass ........       286.257       469.571         9.998         0.955         5.520
  Continuity Error (%) .....         4.538         4.551         2.636         2.261         2.455
  
  
  *************************
  Highest Continuity Errors
  *************************
  Node YS02001774 (34.82%)
  Node HS02004842 (24.24%)
  Node JK-storage (-20.53%)
  Node YS02001884 (17.90%)
  Node YSB1171 (5.46%)
  
  
  ***************************
  Time-Step Critical Elements
  ***************************
  Link WS02006252WS02006251 (73.50%)
  Link WS02006280WS02006229 (9.56%)
  Link WS02006238WS02006235 (5.09%)
  Link YS02001793JiankangQianchi (3.84%)
  Link WS02004404WS02004405 (1.68%)
  
  
  ********************************
  Highest Flow Instability Indexes
  ********************************
  Link WS02006113WS02006111 (44)
  Link WS02006111WS02006112 (29)
  Link YS02001779YS02001774 (26)
  Link YS02001774YS02001770 (25)
  Link YS02001619YS02001622 (22)
  
  
  *************************
  Routing Time Step Summary
  *************************
  Minimum Time Step           :     0.37 sec
  Average Time Step           :     1.12 sec
  Maximum Time Step           :     5.00 sec
  Percent in Steady State     :    -0.00
  Average Iterations per Step :     3.96
  Percent Not Converging      :    17.92
  
  
  ***************************
  Subcatchment Runoff Summary
  ***************************
  
  ------------------------------------------------------------------------------------------------------------------------------
                            Total      Total      Total      Total     Imperv       Perv      Total       Total     Peak  Runoff
                           Precip      Runon       Evap      Infil     Runoff     Runoff     Runoff      Runoff   Runoff   Coeff
  Subcatchment                 mm         mm         mm         mm         mm         mm         mm    10^6 ltr      LPS
  ------------------------------------------------------------------------------------------------------------------------------
  sub0                       5.99       0.00       0.00       0.41       5.53       0.01       5.54        0.00     1.95   0.924
  sub1                       5.99       0.00       0.00       0.65       5.25       0.01       5.25        0.03    11.02   0.876
  sub2                       5.99       0.00       0.00       2.21       3.70       0.00       3.70        0.03     9.83   0.617
  sub3                       5.99       0.00       0.00       2.21       3.66       0.00       3.66        0.08    20.34   0.611
  sub4                       5.99       0.00       0.00       0.66       5.11       0.00       5.11        0.11    22.82   0.852
  sub5                       5.99       0.00       0.00       0.41       5.48       0.01       5.49        0.06    19.60   0.916
  sub7                       5.99       0.00       0.00       0.53       5.39       0.01       5.40        0.02     6.74   0.901
  sub8                       5.99       0.00       0.00       0.53       5.38       0.01       5.39        0.03    12.02   0.900
  sub9                       5.99       0.00       0.00       0.53       5.38       0.01       5.39        0.03     8.93   0.899
  sub10                      5.99       0.00       0.00       0.47       5.43       0.01       5.44        0.06    19.49   0.907
  sub11                      5.99       0.00       0.00       0.47       5.45       0.01       5.45        0.06    22.53   0.910
  sub12                      5.99       0.00       0.00       0.77       5.17       0.01       5.18        0.05    18.42   0.864
  sub14                      5.99       0.00       0.00       0.53       5.38       0.01       5.39        0.05    17.49   0.899
  sub15                      5.99       0.00       0.00       1.79       4.14       0.01       4.14        0.07    23.80   0.691
  sub16                      5.99       0.00       0.00       1.97       3.98       0.01       3.99        0.04    16.38   0.665
  sub17                      5.99       0.00       0.00       1.91       4.03       0.01       4.04        0.03    13.31   0.675
  sub22                      5.99       0.00       0.00       2.57       3.38       0.01       3.38        0.21    76.94   0.564
  sub23                      5.99       0.00       0.00       2.21       3.73       0.01       3.74        0.18    65.32   0.624
  sub60                      5.99       0.00       0.00       0.72       3.86       0.00       3.86        1.17   111.44   0.644
  sub61                      5.99       0.00       0.00       1.02       4.06       0.00       4.06        1.25   141.56   0.677
  sub62                      5.99       0.00       0.00       0.48       4.37       0.00       4.37        1.34   144.14   0.730
  sub63                      5.99       0.00       0.00       1.74       3.59       0.00       3.59        1.09   132.77   0.600
  sub64                      5.99       0.00       0.00       0.90       3.69       0.00       3.69        1.12   105.76   0.616
  sub65                      5.99       0.00       0.00       0.78       3.75       0.00       3.75        1.15   107.23   0.625
  sub66                      5.99       0.00       0.00       1.74       3.21       0.00       3.21        0.98    97.30   0.535
  sub67                      5.99       0.00       0.00       0.48       4.74       0.00       4.74        1.46   187.17   0.791
  sub68                      5.99       0.00       0.00       0.84       4.30       0.00       4.30        1.32   157.01   0.718
  sub69                      5.99       0.00       0.00       0.90       4.58       0.00       4.58        1.07   157.96   0.764
  sub70                      5.99       4.67       0.00       3.61       5.80       0.01       5.81        1.33   126.68   0.545
  sub71                      5.99       0.00       0.00       0.48       4.21       0.00       4.21        0.99   100.15   0.702
  sub72                      5.99       0.00       0.00       0.42       3.09       0.00       3.09        0.63    47.66   0.515
  1                          5.99       5.66       0.00       1.32       6.06       1.03       7.09        1.67   123.16   0.609
  2                          5.99       0.00       0.00       2.91       1.37       0.36       1.73        0.69    97.47   0.289
  
  
  ****************************
  Subcatchment Washoff Summary
  ****************************
  
  ------------------------------------------------------------------------------------------
                                 COD            SS            TN            TP         NH4-N
  Subcatchment                    kg            kg            kg            kg            kg
  ------------------------------------------------------------------------------------------
  sub0                         0.961         1.818         0.016         0.001         0.008
  sub1                         3.835         7.314         0.071         0.005         0.034
  sub2                         2.180         3.995         0.048         0.003         0.022
  sub3                         5.250         9.479         0.114         0.007         0.052
  sub4                         8.297        15.660         0.169         0.010         0.081
  sub5                         8.856        16.687         0.155         0.012         0.075
  sub7                         2.044         3.987         0.038         0.003         0.018
  sub8                         3.065         6.088         0.062         0.004         0.029
  sub9                         2.600         5.095         0.050         0.003         0.024
  sub10                        7.350        14.040         0.133         0.009         0.064
  sub11                        7.320        14.197         0.136         0.009         0.065
  sub12                        6.175        11.804         0.110         0.008         0.053
  sub14                        5.522        10.720         0.104         0.007         0.050
  sub15                        6.474        11.966         0.126         0.009         0.059
  sub16                        4.150         7.695         0.079         0.006         0.037
  sub17                        3.802         6.985         0.070         0.005         0.033
  sub22                       19.140        34.654         0.369         0.027         0.171
  sub23                       11.726        22.036         0.258         0.016         0.117
  sub60                       63.331       107.839         1.341         0.077         0.640
  sub61                       80.432       136.752         1.554         0.101         0.745
  sub62                       84.700       146.600         1.738         0.104         0.831
  sub63                       60.304       101.281         1.291         0.087         0.589
  sub64                       75.625       123.914         1.444         0.101         0.684
  sub65                       77.522       127.572         1.493         0.102         0.709
  sub66                       45.520        75.440         1.010         0.063         0.466
  sub67                      127.778       220.038         2.317         0.164         1.115
  sub68                       90.467       155.780         1.806         0.116         0.857
  sub69                       85.063       149.157         1.640         0.111         0.779
  sub70                      128.618       224.598         2.691         0.179         1.243
  sub71                       55.978        97.607         1.229         0.067         0.585
  sub72                       37.088        59.563         0.728         0.047         0.349
  1                           69.911       123.060         1.512         0.101         0.688
  2                           10.467        17.201         0.337         0.020         0.141
  ------------------------------------------------------------------------------------------
  System                    1201.549      2070.623        24.239         1.585        11.409
  
  
  ******************
  Node Depth Summary
  ******************
  
  ---------------------------------------------------------------------------------
                                 Average  Maximum  Maximum  Time of Max    Reported
                                   Depth    Depth      HGL   Occurrence   Max Depth
  Node                 Type       Meters   Meters   Meters  days hr:min      Meters
  ---------------------------------------------------------------------------------
  WS02001211           JUNCTION     0.71     0.79     5.63     0  06:38        0.79
  WS02001212           JUNCTION     0.43     0.51     5.57     0  06:37        0.51
  WS02001213           JUNCTION     0.67     0.76     5.52     0  06:36        0.76
  WS02003069           JUNCTION     0.48     0.59     5.17     0  05:12        0.59
  WS02003072           JUNCTION     0.54     0.64     5.01     0  05:12        0.64
  WS02003073           JUNCTION     0.33     0.40     4.46     0  05:13        0.40
  WS02003060           JUNCTION     0.42     0.52     5.45     0  05:11        0.52
  WS02003066           JUNCTION     0.24     0.30     5.85     0  03:58        0.30
  WS02003059           JUNCTION     0.72     0.81     5.50     0  05:11        0.81
  WS02003067           JUNCTION     0.60     0.70     6.02     0  03:58        0.70
  WS02004401           JUNCTION     0.70     0.86     6.86     0  03:55        0.86
  WS02004402           JUNCTION     0.73     0.89     6.85     0  03:55        0.89
  WS02004403           JUNCTION     0.75     0.90     6.83     0  03:55        0.90
  WS02004404           JUNCTION     0.82     0.97     6.82     0  03:56        0.97
  WS02004406           JUNCTION     0.83     0.96     6.79     0  03:56        0.96
  WS02004409           JUNCTION     0.51     0.67     6.44     0  05:09        0.67
  WS02004410           JUNCTION     0.53     0.69     6.41     0  05:10        0.69
  WS02004411           JUNCTION     0.55     0.70     6.38     0  05:10        0.70
  WS02004412           JUNCTION     0.57     0.70     6.34     0  03:58        0.70
  WS02004413           JUNCTION     0.73     0.86     6.33     0  03:58        0.86
  WS02004405           JUNCTION     0.82     0.96     6.81     0  03:56        0.96
  WS02006109           JUNCTION     0.78     1.00     7.62     0  03:50        0.99
  WS02006110           JUNCTION     0.77     0.94     7.53     0  03:50        0.94
  WS02006111           JUNCTION     0.23     0.29     7.00     0  03:50        0.29
  WS02006112           JUNCTION     0.87     1.09     6.97     0  03:55        1.07
  WS02006113           JUNCTION     0.35     0.46     7.36     0  03:50        0.46
  WS02006115           JUNCTION     0.59     0.77     6.90     0  03:55        0.77
  WS02006116           JUNCTION     0.67     0.84     6.88     0  03:56        0.84
  WS02006230           JUNCTION     0.77     1.14     7.88     0  03:49        1.13
  WS02006231           JUNCTION     0.52     1.14     8.26     0  06:17        0.88
  WS02006232           JUNCTION     0.66     1.23     8.26     0  06:17        1.07
  WS02006234           JUNCTION     0.60     1.28     8.44     0  06:17        1.08
  WS02006235           JUNCTION     0.64     1.21     8.38     0  06:17        1.17
  WS02006238           JUNCTION     0.67     1.26     8.40     0  06:17        1.20
  WS02006240           JUNCTION     0.58     1.41     8.71     0  06:17        1.14
  WS02006242           JUNCTION     0.64     1.32     8.59     0  06:17        1.22
  WS02006243           JUNCTION     0.53     1.30     8.72     0  06:17        1.13
  WS02006245           JUNCTION     0.51     1.22     8.71     0  06:17        1.12
  WS02006247           JUNCTION     0.53     1.20     8.70     0  06:17        1.13
  WS02006248           JUNCTION     0.47     1.10     8.69     0  06:17        1.08
  WS02006249           JUNCTION     0.49     1.09     8.69     0  03:49        1.09
  WS02006239           JUNCTION     0.63     1.28     8.49     0  06:17        1.19
  WS02006251           JUNCTION     0.48     1.44     9.11     0  03:49        1.13
  WS02006252           JUNCTION     0.35     1.00     9.24     0  03:49        0.68
  WS02006253           JUNCTION     0.50     1.45     9.10     0  03:49        1.16
  WS02006256           JUNCTION     1.43     2.35     9.28     0  00:00        2.35
  WS02004138           JUNCTION     0.16     0.20     7.45     0  00:00        0.19
  WS02004139           JUNCTION     0.65     0.74     5.65     0  06:38        0.74
  WS02004407           JUNCTION     0.23     0.30     6.61     0  03:56        0.30
  WS02006228           JUNCTION     0.78     1.05     7.70     0  03:49        1.04
  WS02006229           JUNCTION     0.75     1.05     7.74     0  03:50        1.05
  WS02006280           JUNCTION     0.05     0.17     8.44     0  02:12        0.17
  WS02006284           JUNCTION     0.34     0.52     8.92     0  02:12        0.52
  WS02006287           JUNCTION     0.07     0.26     9.21     0  02:12        0.26
  WSF200               JUNCTION     0.23     0.31     5.54     0  03:58        0.31
  HS02004901           JUNCTION     0.10     0.26    10.09     0  02:09        0.26
  HS02004881           JUNCTION     0.00     0.03     9.06     0  02:11        0.03
  HS02004876           JUNCTION     0.03     0.11     9.14     0  02:06        0.11
  HS02004870           JUNCTION     0.01     0.05     9.34     0  02:12        0.05
  HS02004862           JUNCTION     0.01     0.06     9.45     0  02:12        0.06
  HS02004856           JUNCTION     0.07     0.11     9.54     0  02:12        0.11
  HS02004852           JUNCTION     0.01     0.04     9.55     0  02:13        0.04
  HS02004848           JUNCTION     0.01     0.04     9.64     0  02:11        0.04
  HS02004842           JUNCTION     0.33     0.37     9.64     0  02:11        0.37
  HS02004837           JUNCTION     0.02     0.06     9.64     0  02:11        0.06
  HS02004830           JUNCTION     0.03     0.07     9.54     0  02:12        0.07
  HS02004824           JUNCTION     0.02     0.05     9.45     0  02:14        0.05
  HS02004817           JUNCTION     0.42     0.56     9.41     0  02:12        0.56
  HS02004807           JUNCTION     0.11     0.24     9.41     0  02:12        0.24
  HS02004802           JUNCTION     0.14     0.27     9.40     0  02:12        0.27
  HS02004799           JUNCTION     0.09     0.31     9.52     0  02:10        0.31
  HS02004792           JUNCTION     0.02     0.12     9.65     0  02:10        0.12
  HS02004788           JUNCTION     0.02     0.09     9.99     0  02:10        0.09
  HS02004785           JUNCTION     0.03     0.16    10.06     0  02:10        0.16
  HS02004777           JUNCTION     0.13     0.28    10.08     0  02:10        0.28
  HS02004770           JUNCTION     0.09     0.26    10.09     0  02:09        0.26
  HS02004480           JUNCTION     0.05     0.24     9.48     0  02:10        0.24
  HS02004479           JUNCTION     0.09     0.28     9.48     0  02:11        0.28
  HS02004478           JUNCTION     0.05     0.16     9.39     0  02:11        0.16
  YS02001745           JUNCTION     0.63     0.85     8.36     0  04:03        0.84
  YS02001748           JUNCTION     1.03     1.29     8.36     0  03:54        1.28
  YS02001751           JUNCTION     1.21     1.49     8.37     0  04:09        1.48
  YS02001754           JUNCTION     1.47     1.77     8.38     0  03:48        1.76
  YS02001762           JUNCTION     1.66     2.00     8.40     0  03:48        1.99
  YS02001765           JUNCTION     1.62     1.95     8.40     0  03:48        1.94
  YS02001767           JUNCTION     1.58     1.91     8.40     0  03:54        1.90
  YS02001770           JUNCTION     1.57     1.90     8.39     0  03:54        1.88
  YS02001774           JUNCTION     1.64     1.96     8.39     0  03:54        1.95
  YS02001779           JUNCTION     1.39     1.68     8.37     0  03:41        1.68
  YS02001882           JUNCTION     0.29     0.57     7.29     0  02:42        0.57
  YS02001884           JUNCTION     0.39     0.67     7.29     0  02:38        0.67
  YS02001759           JUNCTION     1.70     2.04     8.40     0  03:48        2.02
  YS02001887           JUNCTION     0.47     0.75     7.29     0  02:37        0.75
  YS02001890           JUNCTION     0.50     0.78     7.28     0  02:37        0.78
  YS02001898           JUNCTION     0.27     0.53     7.27     0  02:41        0.53
  YS02001901           JUNCTION     0.38     0.66     7.27     0  02:40        0.66
  YS02001904           JUNCTION     0.36     0.64     7.27     0  02:40        0.63
  YS02001907           JUNCTION     0.70     0.98     7.27     0  02:40        0.98
  YS02001910           JUNCTION     0.48     0.76     7.27     0  02:41        0.76
  YS02001915           JUNCTION     0.28     0.55     7.26     0  02:39        0.55
  YS02001918           JUNCTION     0.09     0.20     7.26     0  02:42        0.20
  YS02001619           JUNCTION     1.17     1.50     8.42     0  06:52        1.46
  YS02001629           JUNCTION     1.53     1.85     8.40     0  05:53        1.84
  YS02001641           JUNCTION     1.63     1.95     8.38     0  05:53        1.93
  YS02001644           JUNCTION     1.64     1.92     8.35     0  03:35        1.92
  YS02001652           JUNCTION     1.48     1.86     8.46     0  03:45        1.84
  YS02001655           JUNCTION     1.24     1.66     8.51     0  03:45        1.61
  YS02001920           JUNCTION     0.19     0.27     7.28     0  02:42        0.27
  YS02001923           JUNCTION     0.07     0.10     7.36     0  03:01        0.10
  YS02001926           JUNCTION     0.15     0.20     7.65     0  03:01        0.20
  YS02001929           JUNCTION     0.07     0.10     7.80     0  03:01        0.10
  YS02001658           JUNCTION     0.97     1.41     8.55     0  03:45        1.35
  YS02001661           JUNCTION     0.74     1.18     8.59     0  03:45        1.08
  YS02001664           JUNCTION     0.28     0.56     8.49     0  03:47        0.54
  YS02001622           JUNCTION     1.20     1.51     8.42     0  06:52        1.49
  YS02001633           JUNCTION     1.62     1.95     8.41     0  05:53        1.92
  YS02001649           JUNCTION     1.67     2.02     8.41     0  03:48        2.01
  YS02001757           JUNCTION     1.80     2.13     8.39     0  03:48        2.12
  YS02001895           JUNCTION     0.26     0.53     7.28     0  02:37        0.53
  YS02001625           JUNCTION     1.48     1.78     8.38     0  03:31        1.78
  YS02163301           JUNCTION     1.56     1.89     8.41     0  05:53        1.87
  YS02163601           JUNCTION     1.67     2.01     8.40     0  05:53        1.98
  YS02164001           JUNCTION     1.61     1.94     8.40     0  05:53        1.91
  YS02001647           JUNCTION     1.47     1.78     8.39     0  03:45        1.77
  YSB1154              JUNCTION     0.23     0.43     9.49     0  02:11        0.43
  YSB6556              JUNCTION     0.12     0.32     9.49     0  02:10        0.32
  YSB1174              JUNCTION     0.18     0.38     9.49     0  02:11        0.38
  YSB1171              JUNCTION     0.38     0.58     9.49     0  02:11        0.58
  YS02006553           JUNCTION     0.70     0.98     7.26     0  02:40        0.98
  YS02006561           JUNCTION     0.14     0.29     6.95     0  02:37        0.29
  YS02006556           JUNCTION     0.67     0.95     7.26     0  02:38        0.94
  YS02006558           JUNCTION     0.72     0.99     7.26     0  02:38        0.99
  YS02001783           JUNCTION     0.25     0.73     6.87     0  02:27        0.72
  YS02001784           JUNCTION     0.29     0.79     6.86     0  02:26        0.76
  YS02001786           JUNCTION     0.25     0.77     6.80     0  02:26        0.75
  YS02001788           JUNCTION     0.18     0.78     6.76     0  02:26        0.76
  YS02001790           JUNCTION     0.23     1.23     6.88     0  02:24        1.06
  YS02001791           JUNCTION     0.18     1.49     6.96     0  02:22        1.17
  YS02001793           JUNCTION     0.23     1.79     6.62     0  03:19        1.78
  WSC                  OUTFALL      0.33     0.40     1.07     0  05:13        0.40
  JK-storage           STORAGE      1.84     5.80     6.60     0  02:25        5.80
  CC-storage           STORAGE      1.07     1.35     8.35     0  04:50        1.35
  XR-storage           STORAGE      2.36     5.79     3.79     0  06:07        5.79
  
  
  *******************
  Node Inflow Summary
  *******************
  
  -------------------------------------------------------------------------------------------------
                                  Maximum  Maximum                  Lateral       Total        Flow
                                  Lateral    Total  Time of Max      Inflow      Inflow     Balance
                                   Inflow   Inflow   Occurrence      Volume      Volume       Error
  Node                 Type           LPS      LPS  days hr:min    10^6 ltr    10^6 ltr     Percent
  -------------------------------------------------------------------------------------------------
  WS02001211           JUNCTION      7.35   389.53     0  04:08       0.207        8.83       0.452
  WS02001212           JUNCTION      0.00   391.59     0  04:08           0         8.8       0.274
  WS02001213           JUNCTION      0.00   393.52     0  04:07           0        8.78       0.312
  WS02003069           JUNCTION      0.32   948.39     0  05:11     0.00902          17       0.183
  WS02003072           JUNCTION      0.00   948.21     0  05:12           0          17       0.225
  WS02003073           JUNCTION      1.82   949.90     0  05:12      0.0514          17       0.255
  WS02003060           JUNCTION     16.53   948.23     0  05:11       0.466        17.1       0.174
  WS02003066           JUNCTION      0.00   546.29     0  03:58           0        7.88       0.048
  WS02003059           JUNCTION      0.00   396.52     0  04:07           0        8.76       0.443
  WS02003067           JUNCTION      0.00   546.14     0  03:58           0        7.89       0.104
  WS02004401           JUNCTION      0.00   553.42     0  03:55           0        8.09       0.234
  WS02004402           JUNCTION      0.00   552.47     0  03:55           0        8.07       0.223
  WS02004403           JUNCTION      0.00   552.22     0  03:55           0        8.06       0.206
  WS02004404           JUNCTION      0.16   552.14     0  03:55     0.00457        8.04       0.158
  WS02004406           JUNCTION      0.00   552.17     0  03:56           0        8.01       0.386
  WS02004409           JUNCTION      0.00   551.90     0  03:56           0        7.98       0.166
  WS02004410           JUNCTION      0.00   549.40     0  03:56           0        7.96       0.192
  WS02004411           JUNCTION      0.00   547.82     0  03:57           0        7.95       0.200
  WS02004412           JUNCTION      0.00   546.87     0  03:57           0        7.93       0.221
  WS02004413           JUNCTION      0.00   546.30     0  03:58           0        7.92       0.337
  WS02004405           JUNCTION      0.04   552.17     0  03:56     0.00107        8.03       0.235
  WS02006109           JUNCTION      1.23   560.51     0  03:50      0.0347        8.17       0.229
  WS02006110           JUNCTION      0.00   560.79     0  03:50           0        8.15       0.208
  WS02006111           JUNCTION      0.00   578.62     0  03:50           0        8.12       0.046
  WS02006112           JUNCTION     13.31   562.83     0  03:50      0.0347        8.15       0.344
  WS02006113           JUNCTION      0.00   561.42     0  03:50           0        8.13       0.098
  WS02006115           JUNCTION      0.00   568.04     0  03:55           0        8.13       0.215
  WS02006116           JUNCTION      0.00   555.26     0  03:55           0        8.11       0.183
  WS02006230           JUNCTION     10.28   532.49     0  06:20        0.29        7.05       0.180
  WS02006231           JUNCTION      0.00   522.20     0  06:21           0        6.77       0.114
  WS02006232           JUNCTION      0.00   522.10     0  06:20           0        6.78       0.220
  WS02006234           JUNCTION      0.00   522.78     0  06:20           0        6.78       0.092
  WS02006235           JUNCTION      0.00   527.23     0  06:27           0        6.87       0.131
  WS02006238           JUNCTION      0.00   418.30     0  05:10           0        4.28       0.156
  WS02006240           JUNCTION      0.00   417.36     0  05:10           0        4.23       0.247
  WS02006242           JUNCTION      0.00   417.07     0  05:10           0        4.21       0.296
  WS02006243           JUNCTION      0.00   416.83     0  05:10           0         4.2       0.148
  WS02006245           JUNCTION      0.00   416.41     0  05:10           0        4.19       0.198
  WS02006247           JUNCTION      0.00   415.90     0  05:10           0        4.19       0.157
  WS02006248           JUNCTION      0.00   416.00     0  05:10           0         4.2       0.111
  WS02006249           JUNCTION      0.00   420.01     0  04:29           0        4.33       0.199
  WS02006239           JUNCTION      0.00   418.13     0  05:10           0        4.26       0.176
  WS02006251           JUNCTION      0.08   408.12     0  05:10     0.00217        4.39       0.197
  WS02006252           JUNCTION      0.00   400.00     0  05:00           0        4.14       0.013
  WS02006253           JUNCTION      1.95    81.29     0  03:48     0.00449       0.251       1.606
  WS02006256           JUNCTION      0.00   983.00     0  02:40           0         5.2      -0.007
  WS02004138           JUNCTION      0.00   380.00     0  00:00           0        8.66       0.067
  WS02004139           JUNCTION      0.32   395.85     0  00:00     0.00905        8.67       0.524
  WS02004407           JUNCTION      0.00   552.07     0  03:56           0        7.98       0.075
  WS02006228           JUNCTION      0.00   559.51     0  03:50           0        8.15       0.175
  WS02006229           JUNCTION      0.00   555.79     0  03:50           0        8.16       0.169
  WS02006280           JUNCTION      0.00   306.57     0  02:12           0        1.13       0.006
  WS02006284           JUNCTION      0.10   306.53     0  02:12      0.0027        1.13       0.106
  WS02006287           JUNCTION      0.00   306.39     0  02:12           0        1.13       0.063
  WSF200               JUNCTION      0.00   546.35     0  03:58           0        7.88       0.042
  HS02004901           JUNCTION     16.38    16.38     0  02:06      0.0417      0.0419       4.378
  HS02004881           JUNCTION      6.74    60.44     0  02:10      0.0182       0.193       0.065
  HS02004876           JUNCTION     11.02    53.89     0  02:11      0.0349       0.175       0.302
  HS02004870           JUNCTION     12.02    43.15     0  02:11      0.0344       0.141       0.075
  HS02004862           JUNCTION     10.03    31.90     0  02:12      0.0401       0.106       0.157
  HS02004856           JUNCTION      8.93    21.98     0  02:11      0.0259      0.0677       2.167
  HS02004852           JUNCTION      0.00    13.61     0  02:11           0      0.0419       0.122
  HS02004848           JUNCTION     20.34    20.34     0  02:13      0.0825      0.0825       0.052
  HS02004842           JUNCTION      0.00     7.39     0  02:21           0      0.0536      31.987
  HS02004837           JUNCTION     25.84    32.11     0  02:11       0.239        0.28       0.291
  HS02004830           JUNCTION      0.15    32.23     0  02:11     0.00423        0.27       0.459
  HS02004824           JUNCTION     22.87    54.92     0  02:14       0.108       0.377       0.143
  HS02004817           JUNCTION      0.60    55.51     0  02:14      0.0169       0.393       4.427
  HS02004807           JUNCTION     22.53    76.26     0  02:13      0.0634        0.44       0.969
  HS02004802           JUNCTION      0.00    76.74     0  02:14           0       0.436       0.940
  HS02004799           JUNCTION     17.49   196.10     0  02:09      0.0513       0.605       0.392
  HS02004792           JUNCTION     77.22   178.92     0  02:09       0.221       0.554       0.073
  HS02004788           JUNCTION     25.47   103.99     0  02:10       0.118       0.334       0.117
  HS02004785           JUNCTION      0.15    78.97     0  02:09     0.00423       0.217       0.220
  HS02004777           JUNCTION      0.03    79.36     0  02:08    0.000846       0.217       2.438
  HS02004770           JUNCTION     65.32    80.51     0  02:07       0.178       0.218       1.437
  HS02004480           JUNCTION      0.00   231.35     0  02:10           0       0.709       0.107
  HS02004479           JUNCTION      0.00    36.10     0  02:11           0       0.117       0.629
  HS02004478           JUNCTION      0.00   306.37     0  02:12           0        1.13       0.050
  YS02001745           JUNCTION    111.44   124.02     0  02:59        1.17        1.17       0.650
  YS02001748           JUNCTION      0.04   312.45     0  02:46     0.00127        1.18       1.835
  YS02001751           JUNCTION      0.01   392.35     0  02:50     0.00031        1.16       1.823
  YS02001754           JUNCTION      0.26   194.24     0  02:52     0.00733        1.13       2.173
  YS02001762           JUNCTION      0.00   183.62     0  02:47           0        1.27       1.698
  YS02001765           JUNCTION      0.00   180.03     0  02:47           0        1.27       1.951
  YS02001767           JUNCTION      0.54   176.14     0  02:47      0.0151        1.29       2.839
  YS02001770           JUNCTION    144.29   176.31     0  02:48        1.35        1.37       2.359
  YS02001774           JUNCTION      0.00    49.70     0  02:07           0      0.0724      53.416
  YS02001779           JUNCTION      0.01    40.09     0  02:46    0.000141      0.0303     101.997
  YS02001882           JUNCTION      0.00     5.56     0  02:04           0     0.00758      31.478
  YS02001884           JUNCTION      0.00    15.54     0  02:04           0      0.0289      21.805
  YS02001759           JUNCTION    141.60   324.81     0  02:47        1.25        2.49       0.931
  YS02001887           JUNCTION    187.62   187.86     0  02:29        1.48        1.49       0.503
  YS02001890           JUNCTION      0.00   187.69     0  02:31           0        1.46       0.562
  YS02001898           JUNCTION      0.00   188.71     0  02:39           0        1.45       0.169
  YS02001901           JUNCTION      0.00   189.20     0  02:38           0        1.45       0.406
  YS02001904           JUNCTION      0.00   191.07     0  02:40           0        1.45       0.376
  YS02001907           JUNCTION      0.00   348.95     0  02:39           0        3.13       0.727
  YS02001910           JUNCTION      0.00   156.40     0  02:40           0        1.69       0.626
  YS02001915           JUNCTION    100.17   152.90     0  02:39       0.994         1.7       0.289
  YS02001918           JUNCTION      0.00    51.42     0  03:04           0       0.706       0.190
  YS02001619           JUNCTION     97.30    97.30     0  02:41       0.983       0.983       1.216
  YS02001629           JUNCTION      0.00   210.86     0  02:53           0       0.905       3.191
  YS02001641           JUNCTION      0.00   219.28     0  02:50           0        1.96       1.098
  YS02001644           JUNCTION    105.80   323.83     0  02:50        1.12        3.05       0.849
  YS02001652           JUNCTION      0.00   198.05     0  02:48           0        1.04       2.321
  YS02001655           JUNCTION      0.15   354.16     0  02:53     0.00434        1.07       1.998
  YS02001920           JUNCTION      2.87    50.60     0  03:01      0.0809       0.708       0.323
  YS02001923           JUNCTION      0.04    47.73     0  03:01     0.00106       0.628       0.058
  YS02001926           JUNCTION      0.05    47.71     0  03:01     0.00147       0.629       0.401
  YS02001929           JUNCTION     47.66    47.66     0  03:01       0.628       0.628       0.056
  YS02001658           JUNCTION      0.00   345.80     0  02:56           0        1.12       1.726
  YS02001661           JUNCTION      0.00   445.52     0  03:42           0        1.51       0.336
  YS02001664           JUNCTION    132.77   386.35     0  03:42        1.09        1.48       0.166
  YS02001622           JUNCTION      0.00   153.27     0  02:54           0       0.972       3.368
  YS02001633           JUNCTION    107.43   220.14     0  02:50        1.16        2.02       1.620
  YS02001649           JUNCTION      0.00   483.88     0  02:45           0        3.67       1.024
  YS02001757           JUNCTION      0.00   841.19     0  02:49           0        7.17       1.298
  YS02001895           JUNCTION      0.00   188.11     0  02:39           0        1.45       0.277
  YS02001625           JUNCTION      0.00   211.39     0  02:53           0       0.941       4.332
  YS02163301           JUNCTION      0.00   112.78     0  02:50           0        0.89       2.780
  YS02163601           JUNCTION      0.11   220.65     0  02:50      0.0031        1.98       1.542
  YS02164001           JUNCTION      0.00   220.05     0  02:50           0        1.96       1.048
  YS02001647           JUNCTION      0.00   322.84     0  02:50           0        2.68       1.054
  YSB1154              JUNCTION     19.60    19.60     0  02:09      0.0622      0.0634       2.330
  YSB6556              JUNCTION      0.00    19.47     0  02:11           0      0.0643       1.977
  YSB1174              JUNCTION     18.42    18.42     0  02:06      0.0452       0.046       2.870
  YSB1171              JUNCTION      0.00    35.94     0  02:10           0       0.116       5.777
  YS02006553           JUNCTION      0.00   344.86     0  02:39           0        3.12       0.470
  YS02006561           JUNCTION      0.00   537.13     0  02:38           0        4.41       0.006
  YS02006556           JUNCTION      0.00   346.95     0  02:38           0        3.12       0.341
  YS02006558           JUNCTION    157.89   508.50     0  02:38        1.35        4.44       0.112
  YS02001783           JUNCTION      0.00   500.62     0  02:39           0        4.41       0.038
  YS02001784           JUNCTION      1.06   510.18     0  02:37      0.0299        4.44       0.058
  YS02001786           JUNCTION      0.06   524.51     0  02:37     0.00159        4.44       0.058
  YS02001788           JUNCTION      0.07   567.95     0  02:36       0.002        4.44       0.035
  YS02001790           JUNCTION      0.15   615.12     0  02:36     0.00437        4.44       0.018
  YS02001791           JUNCTION      0.00   655.84     0  02:37           0        4.44       0.014
  YS02001793           JUNCTION      0.00   679.01     0  02:37           0        4.45      -0.064
  WSC                  OUTFALL       0.00   949.74     0  05:13           0          17       0.000
  JK-storage           STORAGE       0.00   749.37     0  02:40           0         4.6     -17.036
  CC-storage           STORAGE       0.00   844.58     0  02:49           0        7.08       0.800
  XR-storage           STORAGE     402.72   402.72     0  02:41           8         8.6      -0.759
  
  
  **********************
  Node Surcharge Summary
  **********************
  
  Surcharging occurs when water rises above the top of the highest conduit.
  ---------------------------------------------------------------------
                                               Max. Height   Min. Depth
                                   Hours       Above Crown    Below Rim
  Node                 Type      Surcharged         Meters       Meters
  ---------------------------------------------------------------------
  WS02006109           JUNCTION        2.62          0.184        1.636
  WS02006110           JUNCTION        0.73          0.032        1.818
  WS02006112           JUNCTION        0.91          0.091        1.589
  WS02006230           JUNCTION        0.64          0.058        1.512
  WS02006231           JUNCTION        0.93          0.431        1.099
  WS02006232           JUNCTION        2.25          0.526        0.954
  WS02006234           JUNCTION        1.92          0.559        0.681
  WS02006235           JUNCTION        2.07          0.504        0.786
  WS02006238           JUNCTION        2.15          0.536        0.894
  WS02006240           JUNCTION        1.94          0.704        0.686
  WS02006242           JUNCTION        2.06          0.588        0.232
  WS02006243           JUNCTION        1.48          0.592        0.178
  WS02006245           JUNCTION        1.28          0.514        0.336
  WS02006247           JUNCTION        1.31          0.485        0.275
  WS02006248           JUNCTION        1.08          0.380        0.000
  WS02006249           JUNCTION        1.15          0.390        0.000
  WS02006239           JUNCTION        1.98          0.543        0.747
  WS02006251           JUNCTION        0.60          0.407        0.773
  WS02006252           JUNCTION        2.25          0.601        0.499
  WS02006253           JUNCTION        0.63          0.412        2.068
  WS02006256           JUNCTION        6.41          2.050        0.000
  WS02006228           JUNCTION        2.57          0.218        1.982
  YS02001748           JUNCTION        3.53          0.205        0.985
  YS02001751           JUNCTION        4.78          0.491        0.709
  YS02001754           JUNCTION        5.20          0.719        0.431
  YS02001762           JUNCTION        5.52          1.001        0.149
  YS02001765           JUNCTION        5.49          0.950        0.150
  YS02001767           JUNCTION        5.47          0.908        0.122
  YS02001770           JUNCTION        5.45          0.868        0.052
  YS02001774           JUNCTION        5.51          0.964        0.086
  YS02001779           JUNCTION        5.06          0.680        0.000
  YS02001759           JUNCTION        5.54          1.035        0.175
  YS02001619           JUNCTION        4.73          0.496        0.114
  YS02001629           JUNCTION        4.74          0.470        0.000
  YS02001641           JUNCTION        5.50          0.946        0.154
  YS02001644           JUNCTION        5.50          0.920        0.000
  YS02001652           JUNCTION        5.30          0.832        0.298
  YS02001655           JUNCTION        4.83          0.658        0.542
  YS02001658           JUNCTION        3.67          0.410        0.890
  YS02001661           JUNCTION        0.01          0.113        1.277
  YS02001622           JUNCTION        4.76          0.511        0.109
  YS02001633           JUNCTION        5.49          0.933        0.127
  YS02001649           JUNCTION        5.53          1.017        0.033
  YS02001757           JUNCTION        5.59          1.127        0.083
  YS02001625           JUNCTION        5.41          0.780        0.000
  YS02163301           JUNCTION        5.47          0.892        0.138
  YS02163601           JUNCTION        5.52          1.005        0.075
  YS02164001           JUNCTION        5.49          0.939        0.161
  YS02001647           JUNCTION        5.36          0.775        0.125
  YS02001790           JUNCTION        0.36          0.435        0.722
  YS02001791           JUNCTION        0.42          0.693        1.227
  YS02001793           JUNCTION        0.71          0.792        1.808
  
  
  *********************
  Node Flooding Summary
  *********************
  
  Flooding refers to all water that overflows a node, whether it ponds or not.
  --------------------------------------------------------------------------
                                                             Total   Maximum
                                 Maximum   Time of Max       Flood    Ponded
                        Hours       Rate    Occurrence      Volume     Depth
  Node                 Flooded       LPS   days hr:min    10^6 ltr    Meters
  --------------------------------------------------------------------------
  WS02006248              0.01      8.52      0  06:17       0.000     0.000
  WS02006249              0.56    102.35      0  03:49       0.122     0.000
  WS02006256              2.44    785.57      0  04:30       2.542     0.000
  YS02001779              0.34     13.80      0  03:48       0.003     0.000
  YS02001629              0.01      5.89      0  06:52       0.000     0.000
  YS02001644              1.30    180.03      0  04:07       0.329     0.000
  YS02001625              0.05     10.01      0  05:53       0.000     0.000
  JK-storage              0.22    414.10      0  03:20       0.157     0.000
  
  
  **********************
  Storage Volume Summary
  **********************
  
  --------------------------------------------------------------------------------------------------
                         Average     Avg  Evap Exfil       Maximum     Max    Time of Max    Maximum
                          Volume    Pcnt  Pcnt  Pcnt        Volume    Pcnt     Occurrence    Outflow
  Storage Unit           1000 m3    Full  Loss  Loss       1000 m3    Full    days hr:min        LPS
  --------------------------------------------------------------------------------------------------
  JK-storage               0.092      32     0     0         0.291     100       0  02:25     983.00
  CC-storage               2.993      19     0     0         3.764      24       0  04:50     400.00
  XR-storage               0.283      31     0     0         0.695      75       0  06:07     380.00
  
  
  ***********************
  Outfall Loading Summary
  ***********************
  
  ---------------------------------------------------------------------------------------------------------------------------------
                         Flow       Avg       Max       Total         Total         Total         Total         Total         Total
                         Freq      Flow      Flow      Volume           COD            SS            TN            TP         NH4-N
  Outfall Node           Pcnt       LPS       LPS    10^6 ltr            kg            kg            kg            kg            kg
  ---------------------------------------------------------------------------------------------------------------------------------
  WSC                   99.98    681.99    949.74      16.958      2124.020      3476.179       166.169        20.178       102.292
  ---------------------------------------------------------------------------------------------------------------------------------
  System                99.98    681.99    949.74      16.958      2124.020      3476.179       166.169        20.178       102.292
  
  
  ********************
  Link Flow Summary
  ********************
  
  -----------------------------------------------------------------------------
                                 Maximum  Time of Max   Maximum    Max/    Max/
                                  |Flow|   Occurrence   |Veloc|    Full    Full
  Link                 Type          LPS  days hr:min     m/sec    Flow   Depth
  -----------------------------------------------------------------------------
  WS02003066WSF200     CONDUIT    546.35     0  03:58      2.77    0.09    0.23
  WS02006287WS02006284 CONDUIT    306.43     0  02:12      1.85    0.14    0.26
  WS02006284WS02006280 CONDUIT    306.57     0  02:12      2.09    0.13    0.24
  WS02006280WS02006229 CONDUIT    306.57     0  02:12      3.37    0.07    0.17
  WS02006229WS02006228 CONDUIT    559.51     0  03:50      1.11    1.85    1.00
  WS02006256WS02006235 CONDUIT    288.92     0  00:00      4.23    3.06    1.00
  WS02006253WS02006251 CONDUIT     77.29     0  03:48      0.57    0.23    1.00
  WS02006252WS02006251 CONDUIT    401.05     0  06:20      3.19    1.47    1.00
  WS02006251WS02006249 CONDUIT    420.01     0  04:29      1.10    1.21    1.00
  WS02006249WS02006248 CONDUIT    416.00     0  05:10      1.14    2.28    1.00
  WS02006248WS02006247 CONDUIT    415.90     0  05:10      1.11    0.91    1.00
  WS02006247WS02006245 CONDUIT    416.41     0  05:10      1.08    3.30    1.00
  WS02006245WS02006243 CONDUIT    416.83     0  05:10      1.09    1.23    1.00
  WS02006243WS02006242 CONDUIT    417.07     0  05:10      1.08    0.89    1.00
  WS02006242WS02006240 CONDUIT    417.36     0  05:10      1.08    1.66    1.00
  WS02006240WS02006239 CONDUIT    418.13     0  05:10      1.09    1.32    1.00
  WS02006239WS02006238 CONDUIT    418.30     0  05:10      1.09    1.34    1.00
  WS02006238WS02006235 CONDUIT    419.52     0  05:10      1.45    0.94    1.00
  WS02006235WS02006234 CONDUIT    522.78     0  06:20      1.36    5.52    1.00
  WS02006234WS02006232 CONDUIT    522.10     0  06:20      1.39    1.06    1.00
  WS02006232WS02006231 CONDUIT    522.20     0  06:21      1.36    1.09    1.00
  WS02006231WS02006230 CONDUIT    522.21     0  06:20      1.36    7.92    1.00
  WS02006230WS02006229 CONDUIT    532.51     0  06:18      1.38   11.85    1.00
  WS02006228WS02006109 CONDUIT    559.28     0  03:50      1.11    2.44    1.00
  WS02006116WS02004401 CONDUIT    553.42     0  03:55      1.00    0.76    0.85
  WS02006115WS02006116 CONDUIT    555.26     0  03:55      1.02    0.71    0.77
  WS02006113WS02006111 CONDUIT    578.62     0  03:50      2.49    0.69    0.47
  WS02006112WS02006115 CONDUIT    568.04     0  03:55      0.79    0.34    0.88
  WS02006111WS02006112 CONDUIT    562.54     0  03:50      1.60    0.27    0.68
  WS02006110WS02006113 CONDUIT    561.42     0  03:50      1.32    0.51    0.79
  WS02006109WS02006110 CONDUIT    560.79     0  03:50      1.12    1.08    1.00
  WS02004411WS02004412 CONDUIT    546.87     0  03:57      0.93    0.78    0.70
  WS02004401WS02004402 CONDUIT    552.47     0  03:55      1.00    0.66    0.87
  WS02004413WS02003067 CONDUIT    546.14     0  03:58      1.12    0.23    0.60
  WS02004412WS02004413 CONDUIT    546.30     0  03:58      0.83    0.37    0.78
  WS02004410WS02004411 CONDUIT    547.82     0  03:57      0.95    0.75    0.69
  WS02004409WS02004410 CONDUIT    549.40     0  03:56      0.98    0.71    0.68
  WS02004407WS02004409 CONDUIT    551.90     0  03:56      1.48    0.20    0.49
  WS02004406WS02004407 CONDUIT    552.07     0  03:56      1.06    0.25    0.63
  WS02004405WS02004406 CONDUIT    552.17     0  03:56      1.10    1.09    0.96
  WS02004404WS02004405 CONDUIT    552.13     0  03:56      1.15    5.41    0.97
  WS02004403WS02004404 CONDUIT    551.97     0  03:55      0.98    0.40    0.94
  WS02004402WS02004403 CONDUIT    552.22     0  03:55      1.02    0.79    0.89
  WS02004139WS02001211 CONDUIT    382.18     0  04:08      0.90    0.48    0.60
  WS02004138WS02004139 CONDUIT    395.52     0  00:00      3.64    0.08    0.44
  WS02003067WS02003066 CONDUIT    546.29     0  03:58      1.22    0.18    0.42
  WS02001213WS02003059 CONDUIT    396.52     0  04:07      0.89    0.65    0.78
  WS02001212WS02001213 CONDUIT    393.52     0  04:07      1.32    0.61    0.47
  WS02001211WS02001212 CONDUIT    391.59     0  04:08      0.78    0.30    0.65
  WS02003072WS02003073 CONDUIT    948.08     0  05:12      1.73    2.05    0.49
  WS02003069WS02003072 CONDUIT    948.21     0  05:12      1.63    0.46    0.51
  WS02003060WS02003069 CONDUIT    948.07     0  05:11      1.87    0.37    0.46
  WS02003059WS02003060 CONDUIT    400.18     0  04:06      0.95    0.26    0.66
  HS02004901HS02004770 CONDUIT     15.52     0  02:08      0.06    0.06    0.37
  HS02004876HS02004881 CONDUIT     54.11     0  02:11      0.79    0.58    0.10
  HS02004870HS02004876 CONDUIT     43.11     0  02:12      0.54    0.03    0.11
  HS02004842HS02004848 CONDUIT      7.39     0  02:21      0.04    0.00    0.29
  HS02004837HS02004842 CONDUIT      7.72     0  02:22      0.42    0.00    0.30
  HS02004830HS02004837 CONDUIT     32.08     0  02:11      0.50    0.03    0.09
  HS02004824HS02004830 CONDUIT     32.22     0  02:12      0.54    0.04    0.09
  HS02004817HS02004824 CONDUIT     54.91     0  02:14      0.18    0.02    0.44
  HS02004770HS02004777 CONDUIT     79.33     0  02:08      0.30    0.15    0.39
  HS02004799HS02004480 CONDUIT    195.77     0  02:10      0.73    0.25    0.39
  HS02004792HS02004799 CONDUIT    178.83     0  02:10      0.83    0.11    0.31
  HS02004788HS02004792 CONDUIT    103.89     0  02:10      0.96    0.07    0.15
  HS02004785HS02004788 CONDUIT     78.86     0  02:10      0.62    0.59    0.18
  HS02004777HS02004785 CONDUIT     78.82     0  02:09      0.35    0.10    0.32
  HS02004480HS02004478 CONDUIT    231.38     0  02:11      1.13    0.97    0.29
  HS02004479HS02004480 CONDUIT     36.45     0  02:12      0.17    0.04    0.37
  HS02004862HS02004870 CONDUIT     31.85     0  02:12      0.56    0.03    0.08
  HS02004848HS02004852 CONDUIT     13.61     0  02:11      0.38    0.02    0.05
  HS02004856HS02004862 CONDUIT     21.93     0  02:12      0.41    0.02    0.08
  HS02004852HS02004856 CONDUIT     13.54     0  02:13      0.18    0.02    0.11
  HS02004802HS02004478 CONDUIT     77.41     0  02:14      0.37    0.07    0.31
  HS02004478WS02006287 CONDUIT    306.39     0  02:12      1.55    0.09    0.22
  HS02004817HS02004807 CONDUIT     56.37     0  02:15      0.14    0.03    0.57
  HS02004807HS02004802 CONDUIT     76.74     0  02:14      0.31    0.15    0.36
  YS02001759YS02001757 CONDUIT    327.43     0  02:47      0.42    0.23    1.00
  YS02001762YS02001759 CONDUIT    187.63     0  02:47      0.24    0.22    1.00
  YS02001765YS02001762 CONDUIT    183.62     0  02:47      0.24    0.17    1.00
  YS02001770YS02001767 CONDUIT    175.60     0  02:47      0.30    0.70    1.00
  YS02001774YS02001770 CONDUIT     49.70     0  02:07      0.13    0.03    1.00
  YS02001779YS02001774 CONDUIT     40.09     0  02:46      0.07    0.02    1.00
  YS02001649YS02001757 CONDUIT    482.44     0  02:42      0.61    0.29    1.00
  YS02001767YS02001765 CONDUIT    180.03     0  02:47      0.27    0.23    1.00
  YS02006561YS02001783 CONDUIT    500.62     0  02:39      2.00    0.26    0.62
  YS02001783YS02001784 CONDUIT    509.12     0  02:37      1.44    0.70    0.93
  YS02001784YS02001785 CONDUIT    524.46     0  02:37      1.56    1.22    0.97
  YS02001788YS02001790 CONDUIT    614.97     0  02:36      2.10    0.45    0.99
  YS02001790YS02001791 CONDUIT    655.84     0  02:37      2.49    0.71    1.00
  YS02001791YS02001793 CONDUIT    679.01     0  02:37      5.04    0.29    1.00
  YS02001910YS02001907 CONDUIT    156.04     0  02:39      0.49    0.09    0.86
  YS02001786YS02001788 CONDUIT    567.88     0  02:36      2.03    1.09    0.95
  YS02001915YS02001910 CONDUIT    156.40     0  02:40      0.45    0.08    0.65
  YS02001918YS02001915 CONDUIT     55.30     0  03:04      0.44    0.03    0.37
  YS02001923YS02001920 CONDUIT     47.73     0  03:01      0.53    0.02    0.18
  YS02001926YS02001923 CONDUIT     47.69     0  03:01      0.58    0.07    0.16
  YS02001929YS02001926 CONDUIT     47.66     0  03:01      0.62    0.02    0.15
  YS02001920YS02001918 CONDUIT     51.42     0  03:04      0.53    0.05    0.23
  YS02001629YS02163301 CONDUIT    112.78     0  02:50      0.14    0.14    1.00
  YS02001619YS02001622 CONDUIT    153.27     0  02:54      0.71    0.23    1.00
  YS02001622YS02001625 CONDUIT    211.39     0  02:53      0.29    0.11    1.00
  YS02001625YS02001629 CONDUIT    210.86     0  02:53      0.29    0.10    1.00
  YS02163301YS02001633 CONDUIT    113.15     0  02:50      0.14    0.11    1.00
  YS02163601YS02164001 CONDUIT    220.05     0  02:50      0.28    0.19    1.00
  YS02164001YS02001641 CONDUIT    219.28     0  02:50      0.28    0.30    1.00
  YS02001641YS02001644 CONDUIT    218.59     0  02:50      0.28    0.71    1.00
  YS02001647YS02001649 CONDUIT    323.69     0  02:49      0.41    0.17    1.00
  YS02006553YS02006556 CONDUIT    346.95     0  02:38      0.45    0.30    0.94
  YS02006556YS02006558 CONDUIT    351.98     0  02:38      0.45    0.28    0.97
  YSB6556YSB1171       CONDUIT     19.80     0  02:13      0.08    0.02    0.64
  YS02001907YS02006553 CONDUIT    344.86     0  02:39      0.38    0.41    1.00
  YS02006558YS02006561 CONDUIT    537.13     0  02:38      2.81    1.19    0.65
  YS02001633YS02163601 CONDUIT    220.54     0  02:50      0.28    0.23    1.00
  YS02001644YS02001647 CONDUIT    322.84     0  02:50      0.41    0.19    1.00
  YS02001745YS02001748 CONDUIT    276.61     0  02:51      1.55    0.11    0.92
  YS02001748YS02001751 CONDUIT    392.33     0  02:50      1.19    0.20    1.00
  YS02001751YS02001754 CONDUIT    193.98     0  02:52      0.93    0.09    1.00
  YS02001754YS02001757 CONDUIT    196.92     0  02:52      0.33    0.08    1.00
  YS02001882YS02001884 CONDUIT      5.56     0  02:04      0.07    0.01    0.59
  YS02001884YS02001887 CONDUIT     15.54     0  02:04      0.05    0.02    0.68
  YS02001890YS02001895 CONDUIT    188.11     0  02:39      0.35    0.09    0.65
  YS02001895YS02001898 CONDUIT    188.71     0  02:39      0.48    0.33    0.51
  YS02001898YS02001901 CONDUIT    189.20     0  02:38      0.39    0.12    0.59
  YS02001901YS02001904 CONDUIT    191.07     0  02:40      0.36    0.30    0.65
  YS02001904YS02001907 CONDUIT    193.17     0  02:39      0.29    0.07    0.80
  YS02001887YS02001890 CONDUIT    187.69     0  02:31      0.31    0.32    0.74
  YS02001652YS02001649 CONDUIT    180.54     0  02:43      0.36    0.09    1.00
  YS02001655YS02001652 CONDUIT    198.05     0  02:48      0.97    0.10    1.00
  YS02001658YS02001655 CONDUIT    354.01     0  02:53      1.38    0.15    1.00
  YS02001661YS02001658 CONDUIT    345.80     0  02:56      1.62    0.14    1.00
  YS02001664YS02001661 CONDUIT    445.52     0  03:42      1.36    0.14    0.70
  YSB1154YSB6556       CONDUIT     19.47     0  02:11      0.19    0.04    0.53
  YSB1174YSB1171       CONDUIT     17.27     0  02:07      0.07    0.03    0.65
  YSB1171HS02004479    CONDUIT     36.10     0  02:11      0.54    0.02    0.51
  HS02004881HS02006253 CONDUIT     60.43     0  02:11      1.97    0.01    0.50
  YS02001793JiankangQianchi CONDUIT    749.37     0  02:40     15.18    0.06    1.00
  YS02001757CaochengTiaoxuchi CONDUIT    844.58     0  02:49      1.64    0.37    1.00
  WSF200WS02003060     CONDUIT    546.63     0  03:59      2.06    0.12    0.34
  1                    CONDUIT    949.74     0  05:13      3.28    0.33    0.40
  CC-Pump-1            PUMP       200.00     0  03:40              1.00
  CC-Pump-2            PUMP       200.00     0  05:00              1.00
  JK-Pump-1            PUMP       300.00     0  00:00              1.00
  JK-Pump-2            PUMP       683.00     0  02:40              1.00
  XR-Pump-1            PUMP        95.00     0  00:00              1.00
  XR-Pump-2            PUMP        95.00     0  00:00              1.00
  XR-Pump-3            PUMP        95.00     0  00:00              1.00
  XR-Pump-4            PUMP        95.00     0  00:00              1.00
  
  
  ***************************
  Flow Classification Summary
  ***************************
  
  -------------------------------------------------------------------------------------
                      Adjusted    ---------- Fraction of Time in Flow Class ---------- 
                       /Actual         Up    Down  Sub   Sup   Up    Down  Norm  Inlet 
  Conduit               Length    Dry  Dry   Dry   Crit  Crit  Crit  Crit  Ltd   Ctrl  
  -------------------------------------------------------------------------------------
  WS02003066WSF200        1.00   0.01  0.02  0.00  0.00  0.97  0.00  0.00  0.76  0.00
  WS02006287WS02006284    1.00   0.03  0.02  0.00  0.81  0.14  0.00  0.00  0.76  0.00
  WS02006284WS02006280    1.00   0.04  0.00  0.00  0.00  0.00  0.00  0.96  0.00  0.00
  WS02006280WS02006229    1.00   0.04  0.00  0.00  0.00  0.00  0.00  0.96  0.00  0.00
  WS02006229WS02006228    1.00   0.00  0.00  0.00  1.00  0.00  0.00  0.00  0.00  0.00
  WS02006256WS02006235    1.00   0.00  0.00  0.00  1.00  0.00  0.00  0.00  0.00  0.00
  WS02006253WS02006251    1.00   0.02  0.01  0.00  0.97  0.00  0.00  0.00  0.00  0.00
  WS02006252WS02006251    1.00   0.18  0.00  0.00  0.05  0.00  0.78  0.00  0.00  0.00
  WS02006251WS02006249    1.00   0.00  0.00  0.00  1.00  0.00  0.00  0.00  0.32  0.00
  WS02006249WS02006248    1.00   0.00  0.01  0.00  0.91  0.00  0.08  0.00  0.00  0.00
  WS02006248WS02006247    1.00   0.01  0.00  0.00  0.99  0.00  0.00  0.00  0.20  0.00
  WS02006247WS02006245    1.00   0.00  0.00  0.00  1.00  0.00  0.00  0.00  0.00  0.00
  WS02006245WS02006243    1.00   0.00  0.00  0.00  0.95  0.00  0.00  0.05  0.00  0.00
  WS02006243WS02006242    1.00   0.00  0.00  0.00  1.00  0.00  0.00  0.00  0.31  0.00
  WS02006242WS02006240    1.00   0.00  0.00  0.00  1.00  0.00  0.00  0.00  0.00  0.00
  WS02006240WS02006239    1.00   0.00  0.00  0.00  0.94  0.00  0.00  0.06  0.01  0.00
  WS02006239WS02006238    1.00   0.00  0.00  0.00  1.00  0.00  0.00  0.00  0.19  0.00
  WS02006238WS02006235    1.00   0.00  0.00  0.00  1.00  0.00  0.00  0.00  0.00  0.00
  WS02006235WS02006234    1.00   0.00  0.00  0.00  0.95  0.00  0.05  0.00  0.00  0.00
  WS02006234WS02006232    1.00   0.00  0.00  0.00  1.00  0.00  0.00  0.00  0.14  0.00
  WS02006232WS02006231    1.00   0.00  0.00  0.00  1.00  0.00  0.00  0.00  0.00  0.00
  WS02006231WS02006230    1.00   0.00  0.00  0.00  0.67  0.00  0.33  0.00  0.00  0.00
  WS02006230WS02006229    1.00   0.00  0.00  0.00  1.00  0.00  0.00  0.00  0.00  0.00
  WS02006228WS02006109    1.00   0.00  0.00  0.00  1.00  0.00  0.00  0.00  0.00  0.00
  WS02006116WS02004401    1.00   0.01  0.00  0.00  0.99  0.00  0.00  0.00  0.00  0.00
  WS02006115WS02006116    1.00   0.01  0.00  0.00  0.99  0.00  0.00  0.00  0.00  0.00
  WS02006113WS02006111    1.00   0.01  0.00  0.00  0.00  0.99  0.00  0.00  0.17  0.00
  WS02006112WS02006115    1.00   0.01  0.00  0.00  0.99  0.00  0.00  0.00  0.00  0.00
  WS02006111WS02006112    1.00   0.01  0.00  0.00  0.99  0.00  0.00  0.00  0.98  0.00
  WS02006110WS02006113    1.00   0.00  0.00  0.00  0.99  0.00  0.00  0.00  0.00  0.00
  WS02006109WS02006110    1.00   0.00  0.00  0.00  0.99  0.00  0.00  0.00  0.00  0.00
  WS02004411WS02004412    1.00   0.02  0.00  0.00  0.98  0.00  0.00  0.00  0.00  0.00
  WS02004401WS02004402    1.00   0.01  0.00  0.00  0.99  0.00  0.00  0.00  0.00  0.00
  WS02004413WS02003067    1.00   0.02  0.01  0.00  0.00  0.00  0.98  0.00  0.00  0.00
  WS02004412WS02004413    1.00   0.02  0.00  0.00  0.98  0.00  0.00  0.00  0.01  0.00
  WS02004410WS02004411    1.00   0.02  0.00  0.00  0.98  0.00  0.00  0.00  0.00  0.00
  WS02004409WS02004410    1.00   0.02  0.00  0.00  0.98  0.00  0.00  0.00  0.02  0.00
  WS02004407WS02004409    1.00   0.02  0.00  0.00  0.98  0.00  0.00  0.00  0.95  0.00
  WS02004406WS02004407    1.00   0.00  0.01  0.00  0.99  0.00  0.00  0.00  0.00  0.00
  WS02004405WS02004406    1.00   0.00  0.00  0.00  1.00  0.00  0.00  0.00  0.00  0.00
  WS02004404WS02004405    1.00   0.00  0.00  0.00  1.00  0.00  0.00  0.00  0.00  0.00
  WS02004403WS02004404    1.00   0.00  0.01  0.00  0.99  0.00  0.00  0.00  0.00  0.00
  WS02004402WS02004403    1.00   0.01  0.00  0.00  0.99  0.00  0.00  0.00  0.00  0.00
  WS02004139WS02001211    1.00   0.00  0.00  0.00  1.00  0.00  0.00  0.00  0.00  0.00
  WS02004138WS02004139    1.00   0.00  0.00  0.00  0.99  0.00  0.00  0.00  1.00  0.00
  WS02003067WS02003066    1.00   0.02  0.00  0.00  0.97  0.00  0.00  0.00  0.00  0.00
  WS02001213WS02003059    1.00   0.00  0.00  0.00  1.00  0.00  0.00  0.00  0.00  0.00
  WS02001212WS02001213    1.00   0.00  0.00  0.00  0.91  0.00  0.08  0.00  0.00  0.00
  WS02001211WS02001212    1.00   0.00  0.00  0.00  1.00  0.00  0.00  0.00  0.00  0.00
  WS02003072WS02003073    1.00   0.00  0.00  0.00  0.00  0.00  0.00  1.00  0.00  0.00
  WS02003069WS02003072    1.00   0.00  0.00  0.00  1.00  0.00  0.00  0.00  0.20  0.00
  WS02003060WS02003069    1.00   0.00  0.00  0.00  0.98  0.02  0.00  0.00  0.16  0.00
  WS02003059WS02003060    1.00   0.00  0.00  0.00  1.00  0.00  0.00  0.00  0.01  0.00
  HS02004901HS02004770    1.00   0.04  0.00  0.00  0.96  0.00  0.00  0.00  0.01  0.00
  HS02004876HS02004881    1.00   0.01  0.00  0.00  0.99  0.00  0.00  0.00  0.00  0.00
  HS02004870HS02004876    1.00   0.00  0.00  0.00  0.99  0.00  0.00  0.00  0.95  0.00
  HS02004842HS02004848    1.00   0.00  0.04  0.00  0.96  0.00  0.00  0.00  0.65  0.00
  HS02004837HS02004842    1.00   0.00  0.00  0.00  1.00  0.00  0.00  0.00  0.11  0.00
  HS02004830HS02004837    1.00   0.00  0.00  0.00  1.00  0.00  0.00  0.00  0.99  0.00
  HS02004824HS02004830    1.00   0.00  0.00  0.00  1.00  0.00  0.00  0.00  0.00  0.00
  HS02004817HS02004824    1.00   0.00  0.00  0.00  1.00  0.00  0.00  0.00  1.00  0.00
  HS02004770HS02004777    1.00   0.00  0.04  0.00  0.96  0.00  0.00  0.00  0.06  0.00
  HS02004799HS02004480    1.00   0.00  0.01  0.00  0.95  0.00  0.04  0.00  0.00  0.00
  HS02004792HS02004799    1.00   0.00  0.00  0.00  1.00  0.00  0.00  0.00  0.98  0.00
  HS02004788HS02004792    1.00   0.00  0.00  0.00  1.00  0.00  0.00  0.00  0.98  0.00
  HS02004785HS02004788    1.00   0.00  0.00  0.00  1.00  0.00  0.00  0.00  0.00  0.00
  HS02004777HS02004785    1.00   0.00  0.00  0.00  1.00  0.00  0.00  0.00  0.17  0.00
  HS02004480HS02004478    1.00   0.04  0.00  0.00  0.84  0.00  0.00  0.12  0.00  0.00
  HS02004479HS02004480    1.00   0.01  0.00  0.00  0.99  0.00  0.00  0.00  0.15  0.00
  HS02004862HS02004870    1.00   0.00  0.00  0.00  1.00  0.00  0.00  0.00  0.05  0.00
  HS02004848HS02004852    1.00   0.04  0.00  0.00  0.96  0.00  0.00  0.00  0.72  0.00
  HS02004856HS02004862    1.00   0.00  0.06  0.00  0.94  0.00  0.00  0.00  0.77  0.00
  HS02004852HS02004856    1.00   0.04  0.01  0.00  0.96  0.00  0.00  0.00  0.83  0.00
  HS02004802HS02004478    1.00   0.04  0.01  0.00  0.96  0.00  0.00  0.00  0.01  0.00
  HS02004478WS02006287    1.00   0.05  0.00  0.00  0.90  0.05  0.00  0.00  0.74  0.00
  HS02004817HS02004807    1.00   0.00  0.04  0.00  0.96  0.00  0.00  0.00  0.00  0.00
  HS02004807HS02004802    1.00   0.04  0.00  0.00  0.96  0.00  0.00  0.00  0.01  0.00
  YS02001759YS02001757    1.00   0.00  0.00  0.00  1.00  0.00  0.00  0.00  0.18  0.00
  YS02001762YS02001759    1.00   0.00  0.00  0.00  1.00  0.00  0.00  0.00  0.04  0.00
  YS02001765YS02001762    1.00   0.00  0.00  0.00  1.00  0.00  0.00  0.00  0.20  0.00
  YS02001770YS02001767    1.00   0.00  0.00  0.00  1.00  0.00  0.00  0.00  0.00  0.00
  YS02001774YS02001770    1.00   0.00  0.04  0.00  0.96  0.00  0.00  0.00  0.05  0.00
  YS02001779YS02001774    1.00   0.00  0.00  0.00  1.00  0.00  0.00  0.00  0.24  0.00
  YS02001649YS02001757    1.00   0.00  0.00  0.00  1.00  0.00  0.00  0.00  0.18  0.00
  YS02001767YS02001765    1.00   0.00  0.00  0.00  1.00  0.00  0.00  0.00  0.01  0.00
  YS02006561YS02001783    1.00   0.06  0.00  0.00  0.02  0.91  0.00  0.00  0.64  0.00
  YS02001783YS02001784    1.00   0.00  0.06  0.00  0.94  0.00  0.00  0.00  0.00  0.00
  YS02001784YS02001785    1.00   0.00  0.00  0.00  1.00  0.00  0.00  0.00  0.23  0.00
  YS02001788YS02001790    1.00   0.00  0.00  0.00  0.12  0.88  0.00  0.00  0.68  0.00
  YS02001790YS02001791    1.00   0.00  0.00  0.00  0.09  0.91  0.00  0.00  0.56  0.00
  YS02001791YS02001793    1.00   0.00  0.00  0.00  0.16  0.84  0.00  0.00  0.05  0.00
  YS02001910YS02001907    1.00   0.00  0.00  0.00  0.99  0.00  0.00  0.01  0.13  0.00
  YS02001786YS02001788    1.00   0.00  0.00  0.00  0.10  0.90  0.00  0.00  0.00  0.00
  YS02001915YS02001910    1.00   0.00  0.00  0.00  0.99  0.01  0.00  0.00  0.22  0.00
  YS02001918YS02001915    1.00   0.00  0.00  0.00  0.99  0.01  0.00  0.00  0.68  0.00
  YS02001923YS02001920    1.00   0.00  0.00  0.00  1.00  0.00  0.00  0.00  1.00  0.00
  YS02001926YS02001923    1.00   0.00  0.02  0.00  0.00  0.00  0.98  0.00  0.00  0.00
  YS02001929YS02001926    1.00   0.00  0.04  0.00  0.96  0.00  0.00  0.00  0.87  0.00
  YS02001920YS02001918    1.00   0.00  0.00  0.00  1.00  0.00  0.00  0.00  0.00  0.00
  YS02001629YS02163301    1.00   0.05  0.00  0.00  0.94  0.00  0.00  0.00  0.00  0.00
  YS02001619YS02001622    1.00   0.04  0.00  0.00  0.96  0.00  0.00  0.00  0.00  0.00
  YS02001622YS02001625    1.00   0.04  0.00  0.00  0.96  0.00  0.00  0.00  0.11  0.00
  YS02001625YS02001629    1.00   0.04  0.03  0.00  0.92  0.00  0.01  0.00  0.00  0.00
  YS02163301YS02001633    1.00   0.00  0.05  0.00  0.95  0.00  0.00  0.00  0.00  0.00
  YS02163601YS02164001    1.00   0.00  0.02  0.00  0.98  0.00  0.00  0.00  0.00  0.00
  YS02164001YS02001641    1.00   0.00  0.02  0.00  0.98  0.00  0.00  0.00  0.07  0.00
  YS02001641YS02001644    1.00   0.00  0.00  0.00  1.00  0.00  0.00  0.00  0.00  0.00
  YS02001647YS02001649    1.00   0.00  0.06  0.00  0.94  0.00  0.00  0.00  0.01  0.00
  YS02006553YS02006556    1.00   0.01  0.00  0.00  0.99  0.00  0.00  0.00  0.03  0.00
  YS02006556YS02006558    1.00   0.00  0.00  0.00  1.00  0.00  0.00  0.00  0.00  0.00
  YSB6556YSB1171          1.00   0.01  0.02  0.00  0.97  0.00  0.00  0.00  0.00  0.00
  YS02001907YS02006553    1.00   0.00  0.01  0.00  0.99  0.00  0.00  0.00  0.00  0.00
  YS02006558YS02006561    1.00   0.06  0.00  0.00  0.00  0.94  0.00  0.00  0.66  0.00
  YS02001633YS02163601    1.00   0.00  0.00  0.00  1.00  0.00  0.00  0.00  0.19  0.00
  YS02001644YS02001647    1.00   0.00  0.06  0.00  0.94  0.00  0.00  0.00  0.00  0.00
  YS02001745YS02001748    1.00   0.00  0.00  0.00  0.91  0.00  0.00  0.09  0.05  0.00
  YS02001748YS02001751    1.00   0.00  0.00  0.00  0.97  0.03  0.00  0.00  0.19  0.00
  YS02001751YS02001754    1.00   0.00  0.00  0.00  0.93  0.00  0.00  0.07  0.02  0.00
  YS02001754YS02001757    1.00   0.00  0.00  0.00  1.00  0.00  0.00  0.00  0.24  0.00
  YS02001882YS02001884    1.00   0.05  0.00  0.00  0.95  0.00  0.00  0.00  0.00  0.00
  YS02001884YS02001887    1.00   0.02  0.01  0.00  0.97  0.00  0.00  0.00  0.00  0.00
  YS02001890YS02001895    1.00   0.00  0.05  0.00  0.95  0.00  0.00  0.00  0.00  0.00
  YS02001895YS02001898    1.00   0.05  0.00  0.00  0.93  0.00  0.01  0.00  0.00  0.00
  YS02001898YS02001901    1.00   0.05  0.00  0.00  0.94  0.00  0.00  0.00  0.02  0.00
  YS02001901YS02001904    1.00   0.05  0.00  0.00  0.95  0.00  0.00  0.00  0.00  0.00
  YS02001904YS02001907    1.00   0.00  0.05  0.00  0.95  0.00  0.00  0.00  0.00  0.00
  YS02001887YS02001890    1.00   0.00  0.00  0.00  0.99  0.00  0.01  0.00  0.00  0.00
  YS02001652YS02001649    1.00   0.00  0.00  0.00  1.00  0.00  0.00  0.00  0.22  0.00
  YS02001655YS02001652    1.00   0.00  0.00  0.00  0.93  0.00  0.00  0.07  0.02  0.00
  YS02001658YS02001655    1.00   0.00  0.05  0.00  0.92  0.03  0.00  0.00  0.08  0.00
  YS02001661YS02001658    1.00   0.05  0.00  0.00  0.91  0.05  0.00  0.00  0.05  0.00
  YS02001664YS02001661    1.00   0.04  0.00  0.00  0.91  0.05  0.00  0.00  0.28  0.00
  YSB1154YSB6556          1.00   0.03  0.00  0.00  0.97  0.00  0.00  0.00  0.02  0.00
  YSB1174YSB1171          1.00   0.02  0.01  0.00  0.97  0.00  0.00  0.00  0.00  0.00
  YSB1171HS02004479       1.00   0.01  0.00  0.00  0.98  0.00  0.00  0.00  0.13  0.00
  HS02004881HS02006253    1.00   0.02  0.00  0.00  0.79  0.00  0.00  0.19  0.53  0.00
  YS02001793JiankangQianchi    1.00   0.00  0.00  0.00  0.66  0.34  0.00  0.00  0.56  0.00
  YS02001757CaochengTiaoxuchi    1.00   0.00  0.08  0.00  0.92  0.00  0.00  0.00  0.00  0.00
  WSF200WS02003060        1.00   0.00  0.01  0.00  0.83  0.16  0.00  0.00  0.46  0.00
  1                       1.00   0.00  0.00  0.00  0.00  1.00  0.00  0.00  0.47  0.00
  
  
  *************************
  Conduit Surcharge Summary
  *************************
  
  ----------------------------------------------------------------------------
                                                           Hours        Hours 
                         --------- Hours Full --------   Above Full   Capacity
  Conduit                Both Ends  Upstream  Dnstream   Normal Flow   Limited
  ----------------------------------------------------------------------------
  WS02006229WS02006228        2.57      2.69      2.57      4.28         2.57
  WS02006256WS02006235        5.61      5.62      6.41      3.43         0.01
  WS02006253WS02006251        1.07      1.07      1.12      0.01         0.01
  WS02006252WS02006251        1.09      1.09      2.25      1.93         0.01
  WS02006251WS02006249        1.09      1.09      1.15      0.89         0.57
  WS02006249WS02006248        1.08      1.08      1.15      4.02         0.01
  WS02006248WS02006247        1.13      1.13      1.31      0.01         0.01
  WS02006247WS02006245        1.28      1.36      1.28      4.12         1.27
  WS02006245WS02006243        1.33      1.33      1.48      0.40         0.28
  WS02006243WS02006242        1.57      1.57      2.06      0.01         0.01
  WS02006242WS02006240        1.94      1.94      2.31      2.26         0.01
  WS02006240WS02006239        1.95      1.97      1.98      1.21         0.58
  WS02006239WS02006238        2.10      2.12      2.15      1.33         0.74
  WS02006238WS02006235        2.12      2.12      2.23      0.01         0.01
  WS02006235WS02006234        1.92      1.92      2.07      5.44         0.01
  WS02006234WS02006232        1.99      1.99      2.24      0.73         0.71
  WS02006232WS02006231        0.93      0.93      2.24      0.84         0.01
  WS02006231WS02006230        0.64      0.64      1.00      5.58         0.01
  WS02006230WS02006229        3.43      3.95      3.43      5.85         3.43
  WS02006228WS02006109        2.62      3.04      2.62      4.97         2.62
  WS02006112WS02006115        0.01      0.01      0.91      0.01         0.01
  WS02006111WS02006112        0.01      0.01      4.39      0.01         0.01
  WS02006110WS02006113        0.01      0.01      2.81      0.01         0.01
  WS02006109WS02006110        0.73      0.73      3.04      0.74         0.01
  WS02004405WS02004406        0.01      0.01      0.01      0.80         0.01
  WS02004404WS02004405        0.01      0.01      0.01      5.79         0.01
  WS02003072WS02003073        0.01      0.01      0.01      5.01         0.01
  YS02001759YS02001757        5.54      5.54      5.59      0.01         0.01
  YS02001762YS02001759        5.52      5.52      5.54      0.01         0.01
  YS02001765YS02001762        5.49      5.49      5.52      0.01         0.01
  YS02001770YS02001767        5.47      5.47      5.47      0.01         0.63
  YS02001774YS02001770        5.45      5.45      5.51      0.01         0.01
  YS02001779YS02001774        5.06      5.06      5.51      0.01         0.01
  YS02001649YS02001757        5.53      5.53      5.59      0.01         0.01
  YS02001767YS02001765        5.47      5.47      5.49      0.01         0.01
  YS02001784YS02001785        0.01      0.01      0.01      0.76         0.01
  YS02001788YS02001790        0.01      0.01      0.36      0.01         0.01
  YS02001790YS02001791        0.36      0.36      0.42      0.01         0.01
  YS02001791YS02001793        0.42      0.42      0.88      0.01         0.01
  YS02001786YS02001788        0.01      0.01      0.01      0.06         0.01
  YS02001629YS02163301        5.46      5.46      5.47      0.01         0.01
  YS02001619YS02001622        4.73      4.73      4.76      0.01         0.01
  YS02001622YS02001625        4.76      4.76      5.41      0.01         0.01
  YS02001625YS02001629        4.74      4.74      5.41      0.01         0.01
  YS02163301YS02001633        5.47      5.47      5.50      0.01         0.01
  YS02163601YS02164001        5.49      5.49      5.52      0.01         0.01
  YS02164001YS02001641        5.49      5.49      5.50      0.01         0.01
  YS02001641YS02001644        5.50      5.50      5.50      0.01         0.90
  YS02001647YS02001649        5.36      5.36      5.53      0.01         0.01
  YS02001907YS02006553        0.84      0.84      1.06      0.01         0.01
  YS02006558YS02006561        0.01      0.01      0.01      0.50         0.01
  YS02001633YS02163601        5.49      5.49      5.52      0.01         0.01
  YS02001644YS02001647        5.36      5.36      5.50      0.01         0.01
  YS02001745YS02001748        0.01      0.01      3.53      0.01         0.01
  YS02001748YS02001751        4.12      4.12      4.78      0.01         0.01
  YS02001751YS02001754        4.78      4.78      5.19      0.01         0.01
  YS02001754YS02001757        5.34      5.34      5.59      0.01         0.01
  YS02001652YS02001649        5.39      5.39      5.53      0.01         0.01
  YS02001655YS02001652        4.82      4.82      5.30      0.01         0.01
  YS02001658YS02001655        3.67      3.67      4.83      0.01         0.01
  YS02001661YS02001658        0.01      0.01      3.67      0.01         0.01
  YS02001664YS02001661        0.01      0.01      0.28      0.01         0.01
  HS02004881HS02006253        0.01      0.01      0.63      0.01         0.01
  YS02001793JiankangQianchi        0.71      0.71      3.37      0.01         0.01
  YS02001757CaochengTiaoxuchi        4.54      4.54      5.59      0.01         0.01
  
  
  ***************
  Pumping Summary
  ***************
  
  ---------------------------------------------------------------------------------------------------------
                                                  Min       Avg       Max     Total     Power    % Time Off
                        Percent   Number of      Flow      Flow      Flow    Volume     Usage    Pump Curve
  Pump                 Utilized   Start-Ups       LPS       LPS       LPS  10^6 ltr     Kw-hr    Low   High
  ---------------------------------------------------------------------------------------------------------
  CC-Pump-1               55.31           1      0.00    190.63    200.00     2.940      3.60    0.0    0.0
  CC-Pump-2               38.29           5      0.00     91.04    200.00     1.200      1.73    0.0    0.0
  JK-Pump-1               48.93           5      0.00    186.47    300.00     2.556     45.01    0.0    0.0
  JK-Pump-2               36.17           4      0.00    225.92    683.00     2.642     47.26    0.0   96.0
  XR-Pump-1               89.36           4      0.00     89.70     95.00     2.223     43.00    0.0    0.0
  XR-Pump-2               89.36           4      0.00     89.70     95.00     2.223     43.00    0.0    0.0
  XR-Pump-3               87.23           4      0.00     88.68     95.00     2.109     40.27    0.0    0.0
  XR-Pump-4               87.23           4      0.00     88.68     95.00     2.109     40.27    0.0    0.0
  
  
  ***************************
  Link Pollutant Load Summary
  ***************************
  
  ------------------------------------------------------------------------------------------
                                 COD            SS            TN            TP         NH4-N
  Link                            kg            kg            kg            kg            kg
  ------------------------------------------------------------------------------------------
  WS02003066WSF200           504.815       874.272        16.184         1.533         8.860
  WS02006287WS02006284       140.617       248.935         6.896         0.769         4.052
  WS02006284WS02006280       141.039       249.619         6.936         0.774         4.077
  WS02006280WS02006229       141.025       249.590         6.935         0.774         4.077
  WS02006229WS02006228       512.980       887.741        15.936         1.484         8.663
  WS02006256WS02006235        96.999       165.788         2.637         0.228         1.399
  WS02006253WS02006251        25.679        47.097         0.693         0.059         0.362
  WS02006252WS02006251       272.113       463.826         6.208         0.464         3.095
  WS02006251WS02006249       290.809       499.074         6.752         0.513         3.384
  WS02006249WS02006248       282.090       484.177         6.551         0.497         3.284
  WS02006248WS02006247       281.882       483.860         6.546         0.497         3.282
  WS02006247WS02006245       281.503       483.230         6.537         0.496         3.277
  WS02006245WS02006243       281.279       482.935         6.528         0.495         3.272
  WS02006243WS02006242       281.670       483.715         6.538         0.496         3.277
  WS02006242WS02006240       282.171       484.692         6.546         0.497         3.281
  WS02006240WS02006239       282.867       486.001         6.555         0.497         3.285
  WS02006239WS02006238       284.292       488.583         6.590         0.500         3.304
  WS02006238WS02006235       284.800       489.371         6.603         0.501         3.310
  WS02006235WS02006234       375.265       643.673         9.088         0.718         4.632
  WS02006234WS02006232       374.830       642.951         9.084         0.718         4.630
  WS02006232WS02006231       374.031       641.604         9.060         0.715         4.618
  WS02006231WS02006230       373.528       640.769         9.051         0.715         4.614
  WS02006230WS02006229       373.749       641.294         9.068         0.717         4.624
  WS02006228WS02006109       512.037       886.190        15.909         1.482         8.649
  WS02006116WS02004401       517.366       895.235        16.550         1.566         9.056
  WS02006115WS02006116       518.606       897.286        16.592         1.570         9.078
  WS02006113WS02006111       517.791       895.234        16.625         1.574         9.103
  WS02006112WS02006115       519.783       899.264        16.639         1.574         9.105
  WS02006111WS02006112       517.256       894.338        16.609         1.573         9.094
  WS02006110WS02006113       518.358       896.190        16.648         1.576         9.116
  WS02006109WS02006110       519.540       898.171        16.698         1.582         9.145
  WS02004411WS02004412       508.319       880.141        16.314         1.546         8.934
  WS02004401WS02004402       516.124       893.158        16.503         1.561         9.029
  WS02004413WS02003067       505.533       875.452        16.205         1.535         8.872
  WS02004412WS02004413       506.951       877.858        16.267         1.542         8.907
  WS02004410WS02004411       509.384       881.910        16.350         1.550         8.953
  WS02004409WS02004410       510.403       883.608        16.387         1.553         8.974
  WS02004407WS02004409       511.249       885.001        16.413         1.556         8.988
  WS02004406WS02004407       511.489       885.372        16.417         1.556         8.989
  WS02004405WS02004406       513.065       887.996        16.483         1.563         9.027
  WS02004404WS02004405       514.290       890.029        16.502         1.564         9.035
  WS02004403WS02004404       513.876       889.415        16.420         1.553         8.982
  WS02004402WS02004403       514.931       891.179        16.461         1.557         9.006
  WS02004139WS02001211      1466.512      2357.915       135.016        16.768        84.062
  WS02004138WS02004139      1464.329      2354.426       134.805        16.742        83.930
  WS02003067WS02003066       504.970       874.531        16.190         1.534         8.864
  WS02001213WS02003059      1514.364      2434.510       139.589        17.340        86.920
  WS02001212WS02001213      1517.202      2439.034       139.876        17.376        87.100
  WS02001211WS02001212      1517.176      2438.978       139.880        17.376        87.103
  WS02003072WS02003073      2120.878      3471.225       165.761        20.125       102.033
  WS02003069WS02003072      2124.974      3477.860       166.100        20.167       102.242
  WS02003060WS02003069      2126.982      3481.144       166.231        20.182       102.321
  WS02003059WS02003060      1513.830      2433.741       139.475        17.325        86.847
  HS02004901HS02004770         4.126         7.680         0.079         0.006         0.037
  HS02004876HS02004881        15.747        29.639         0.415         0.034         0.214
  HS02004870HS02004876        12.020        22.502         0.352         0.030         0.185
  HS02004842HS02004848         2.167         3.900         0.047         0.003         0.021
  HS02004837HS02004842         6.782        11.242         0.515         0.062         0.315
  HS02004830HS02004837        52.171        86.146         4.300         0.528         2.662
  HS02004824HS02004830        52.922        87.348         4.372         0.537         2.706
  HS02004817HS02004824        61.590       103.603         4.577         0.551         2.810
  HS02004770HS02004777        15.759        29.563         0.334         0.022         0.152
  HS02004799HS02004480        61.043       109.542         2.302         0.237         1.288
  HS02004792HS02004799        56.177        99.873         2.260         0.238         1.277
  HS02004788HS02004792        35.163        62.218         1.713         0.188         0.995
  HS02004785HS02004788        17.259        31.977         0.486         0.041         0.248
  HS02004777HS02004785        16.719        31.102         0.438         0.035         0.218
  HS02004480HS02004478        74.992       136.399         2.494         0.248         1.371
  HS02004479HS02004480        18.247        33.699         0.601         0.062         0.339
  HS02004862HS02004870         8.953        16.405         0.291         0.027         0.156
  HS02004848HS02004852         2.862         5.223         0.061         0.004         0.028
  HS02004856HS02004862         5.390        10.200         0.110         0.007         0.051
  HS02004852HS02004856         2.858         5.215         0.061         0.004         0.028
  HS02004802HS02004478        65.929       113.038         4.429         0.525         2.698
  HS02004478WS02006287       140.797       249.234         6.911         0.771         4.062
  HS02004817HS02004807        60.224       101.419         4.448         0.535         2.729
  HS02004807HS02004802        66.581       114.076         4.492         0.533         2.737
  YS02001759YS02001757       162.119       278.568         3.555         0.250         1.765
  YS02001762YS02001759        85.485       147.995         2.059         0.150         1.044
  YS02001765YS02001762        84.805       146.715         2.069         0.152         1.052
  YS02001770YS02001767        82.243       142.524         1.768         0.113         0.860
  YS02001774YS02001770         5.238         9.050         0.131         0.010         0.067
  YS02001779YS02001774         3.693         6.208         0.176         0.019         0.103
  YS02001649YS02001757       217.909       362.783         4.829         0.363         2.360
  YS02001767YS02001765        84.702       146.468         2.081         0.154         1.060
  YS02006561YS02001783       333.921       569.628         8.565         0.711         4.473
  YS02001783YS02001784       333.844       569.516         8.562         0.711         4.471
  YS02001784YS02001785       341.220       581.335         9.276         0.800         4.917
  YS02001788YS02001790       341.887       582.420         9.350         0.809         4.964
  YS02001790YS02001791       342.962       584.160         9.451         0.822         5.027
  YS02001791YS02001793       342.902       584.077         9.446         0.821         5.024
  YS02001910YS02001907       113.665       190.183         4.028         0.375         2.233
  YS02001786YS02001788       341.451       581.713         9.305         0.804         4.935
  YS02001915YS02001910       113.575       189.995         3.981         0.368         2.201
  YS02001918YS02001915        57.648        92.459         2.741         0.299         1.609
  YS02001923YS02001920        37.659        60.493         0.797         0.056         0.392
  YS02001926YS02001923        37.297        59.912         0.758         0.051         0.368
  YS02001929YS02001926        37.035        59.481         0.727         0.047         0.348
  YS02001920YS02001918        57.587        92.384         2.716         0.296         1.592
  YS02001629YS02163301        42.316        70.600         0.933         0.059         0.432
  YS02001619YS02001622        45.504        75.567         1.007         0.063         0.465
  YS02001622YS02001625        44.615        74.242         0.985         0.061         0.455
  YS02001625YS02001629        43.536        72.650         0.958         0.060         0.443
  YS02163301YS02001633        42.940        71.694         0.943         0.060         0.438
  YS02163601YS02164001       118.602       196.485         2.538         0.179         1.223
  YS02164001YS02001641       118.329       196.044         2.520         0.177         1.212
  YS02001641YS02001644       119.168       197.452         2.527         0.178         1.214
  YS02001647YS02001649       170.841       282.709         3.482         0.245         1.666
  YS02006553YS02006556       241.940       411.278         6.546         0.567         3.479
  YS02006556YS02006558       241.890       411.181         6.513         0.562         3.457
  YSB6556YSB1171               9.704        18.075         0.252         0.024         0.136
  YS02001907YS02006553       241.927       411.277         6.544         0.567         3.478
  YS02006558YS02006561       333.883       569.552         8.563         0.711         4.471
  YS02001633YS02163601       119.251       197.463         2.520         0.176         1.208
  YS02001644YS02001647       171.719       284.037         3.501         0.247         1.675
  YS02001745YS02001748        63.712       108.609         1.373         0.082         0.660
  YS02001748YS02001751        69.521       118.058         1.933         0.152         1.011
  YS02001751YS02001754        67.034       113.717         1.925         0.155         1.015
  YS02001754YS02001757        67.978       115.211         2.095         0.178         1.125
  YS02001882YS02001884         0.902         1.471         0.023         0.002         0.012
  YS02001884YS02001887         3.218         5.437         0.075         0.006         0.039
  YS02001890YS02001895       129.373       222.698         2.540         0.193         1.257
  YS02001895YS02001898       129.231       222.494         2.533         0.193         1.253
  YS02001898YS02001901       129.107       222.317         2.530         0.192         1.252
  YS02001901YS02001904       129.143       222.410         2.550         0.195         1.264
  YS02001904YS02001907       129.865       223.605         2.640         0.207         1.322
  YS02001887YS02001890       130.228       224.018         2.602         0.201         1.295
  YS02001652YS02001649        48.908        82.942         1.375         0.119         0.704
  YS02001655YS02001652        49.461        83.843         1.391         0.120         0.712
  YS02001658YS02001655        47.215        80.388         1.069         0.078         0.506
  YS02001661YS02001658        50.634        86.270         1.065         0.072         0.488
  YS02001664YS02001661        62.313       104.459         1.337         0.090         0.610
  YSB1154YSB6556               9.210        17.288         0.191         0.016         0.098
  YSB1174YSB1171               6.662        12.596         0.170         0.016         0.091
  YSB1171HS02004479           18.151        33.555         0.592         0.061         0.333
  HS02004881HS02006253        17.719        33.515         0.443         0.035         0.226
  YS02001793JiankangQianchi       344.301       586.364         9.505         0.828         5.058
  YS02001757CaochengTiaoxuchi       442.802       749.188        10.162         0.756         5.062
  WSF200WS02003060           504.530       873.803        16.182         1.534         8.860
  1                         2124.020      3476.179       166.169        20.178       102.292
  CC-Pump-1                  192.838       328.596         4.401         0.329         2.194
  CC-Pump-2                   79.303       135.278         1.807         0.135         0.901
  JK-Pump-1                  105.153       179.364         2.897         0.252         1.541
  JK-Pump-2                  128.664       223.003         3.158         0.258         1.636
  XR-Pump-1                  377.873       607.537        34.801         4.322        21.668
  XR-Pump-2                  377.873       607.537        34.801         4.322        21.668
  XR-Pump-3                  354.400       569.850        32.612         4.050        20.303
  XR-Pump-4                  354.400       569.850        32.612         4.050        20.303
  

  Analysis begun on:  Sun Jul 11 15:24:08 2021
  Analysis ended on:  Sun Jul 11 15:24:11 2021
  Total elapsed time: 00:00:03