
  EPA STORM WATER MANAGEMENT MODEL - VERSION 5.1 (Build 5.3.0.dev0)
  --------------------------------------------------------------

  WARNING 04: minimum elevation drop used for Conduit WS02004404WS02004405
  WARNING 03: negative offset ignored for Link YS02001904YS02001907
  
  *********************************************************
  NOTE: The summary statistics displayed in this report are
  based on results found at every computational time step,  
  not just on results from each reporting time step.
  *********************************************************
  
  ****************
  Analysis Options
  ****************
  Flow Units ............... LPS
  Process Models:
    Rainfall/Runoff ........ YES
    RDII ................... NO
    Snowmelt ............... NO
    Groundwater ............ NO
    Flow Routing ........... YES
    Ponding Allowed ........ NO
    Water Quality .......... YES
  Infiltration Method ...... HORTON
  Flow Routing Method ...... DYNWAVE
  Surcharge Method ......... EXTRAN
  Starting Date ............ 08/28/2015 08:00:00
  Ending Date .............. 08/28/2015 15:50:00
  Antecedent Dry Days ...... 8.0
  Report Time Step ......... 00:01:00
  Wet Time Step ............ 00:01:00
  Dry Time Step ............ 00:01:00
  Routing Time Step ........ 5.00 sec
  Variable Time Step ....... YES
  Maximum Trials ........... 8
  Number of Threads ........ 4
  Head Tolerance ........... 0.001500 m
  
  
  **************************        Volume         Depth
  Runoff Quantity Continuity     hectare-m            mm
  **************************     ---------       -------
  Total Precipitation ......         3.415         7.477
  Evaporation Loss .........         0.000         0.000
  Infiltration Loss ........         0.687         1.504
  Surface Runoff ...........         2.094         4.584
  Final Storage ............         0.636         1.392
  Continuity Error (%) .....        -0.021
  
  
  **************************           COD            SS            TN            TP         NH4-N
  Runoff Quality Continuity             kg            kg            kg            kg            kg
  **************************    ----------    ----------    ----------    ----------    ----------
  Initial Buildup ..........     41378.656     70582.865      1804.177       168.684      1032.807
  Surface Buildup ..........        17.052        25.700         2.867         0.264         1.689
  Wet Deposition ...........         0.000         0.000         0.000         0.000         0.000
  Sweeping Removal .........         0.000         0.000         0.000         0.000         0.000
  Infiltration Loss ........        44.102        80.176         0.849         0.058         0.401
  BMP Removal ..............         0.000         0.000         0.000         0.000         0.000
  Surface Runoff ...........      1452.111      2561.637        28.761         1.898        13.592
  Remaining Buildup ........     39899.008     67965.895      1777.423       166.991      1020.499
  Continuity Error (%) .....         0.001         0.001         0.001         0.000         0.000
  
  
  **************************        Volume        Volume
  Flow Routing Continuity        hectare-m      10^6 ltr
  **************************     ---------     ---------
  Dry Weather Inflow .......         0.616         6.165
  Wet Weather Inflow .......         2.092        20.925
  Groundwater Inflow .......         0.000         0.000
  RDII Inflow ..............         0.000         0.000
  External Inflow ..........         0.102         1.024
  External Outflow .........         1.814        18.137
  Flooding Loss ............         0.687         6.874
  Evaporation Loss .........         0.000         0.000
  Exfiltration Loss ........         0.000         0.000
  Initial Stored Volume ....         0.076         0.761
  Final Stored Volume ......         0.523         5.231
  Continuity Error (%) .....        -4.740
  
  
  **************************           COD            SS            TN            TP         NH4-N
  Quality Routing Continuity            kg            kg            kg            kg            kg
  **************************    ----------    ----------    ----------    ----------    ----------
  Dry Weather Inflow .......      1541.201      2465.922       147.955        18.494        92.472
  Wet Weather Inflow .......      1451.573      2560.736        28.750         1.897        13.586
  Groundwater Inflow .......         0.000         0.000         0.000         0.000         0.000
  RDII Inflow ..............         0.000         0.000         0.000         0.000         0.000
  External Inflow ..........       183.418       293.469        17.608         2.201        11.005
  External Outflow .........      2188.658      3632.875       163.090        19.670       100.023
  Flooding Loss ............       440.894       770.424         9.711         0.737         4.849
  Exfiltration Loss ........         0.000         0.000         0.000         0.000         0.000
  Mass Reacted .............         0.000         0.000         0.000         0.000         0.000
  Initial Stored Mass ......         0.000         0.000         0.000         0.000         0.000
  Final Stored Mass ........       303.065       512.830         8.232         0.687         4.304
  Continuity Error (%) .....         7.669         7.594         6.834         6.635         6.738
  
  
  *************************
  Highest Continuity Errors
  *************************
  Node HS02004842 (21.08%)
  Node JK-storage (-18.29%)
  Node YS02001774 (17.75%)
  Node YS02001884 (12.45%)
  Node YSB1171 (4.41%)
  
  
  ***************************
  Time-Step Critical Elements
  ***************************
  Link WS02006252WS02006251 (71.70%)
  Link YS02006556YS02006558 (8.24%)
  Link WS02006238WS02006235 (5.84%)
  Link WS02006280WS02006229 (5.30%)
  Link WS02004404WS02004405 (1.24%)
  
  
  ********************************
  Highest Flow Instability Indexes
  ********************************
  Link WS02006113WS02006111 (42)
  Link YS02001619YS02001622 (35)
  Link YS02163601YS02164001 (33)
  Link YS02001629YS02163301 (33)
  Link YS02163301YS02001633 (33)
  
  
  *************************
  Routing Time Step Summary
  *************************
  Minimum Time Step           :     0.34 sec
  Average Time Step           :     1.06 sec
  Maximum Time Step           :     5.00 sec
  Percent in Steady State     :    -0.00
  Average Iterations per Step :     4.70
  Percent Not Converging      :    25.37
  
  
  ***************************
  Subcatchment Runoff Summary
  ***************************
  
  ------------------------------------------------------------------------------------------------------------------------------
                            Total      Total      Total      Total     Imperv       Perv      Total       Total     Peak  Runoff
                           Precip      Runon       Evap      Infil     Runoff     Runoff     Runoff      Runoff   Runoff   Coeff
  Subcatchment                 mm         mm         mm         mm         mm         mm         mm    10^6 ltr      LPS
  ------------------------------------------------------------------------------------------------------------------------------
  sub0                       7.48       0.00       0.00       0.46       6.91       0.06       6.97        0.01     2.34   0.932
  sub1                       7.48       0.00       0.00       0.77       6.57       0.05       6.62        0.04    13.82   0.885
  sub2                       7.48       0.00       0.00       2.72       4.63       0.05       4.68        0.04    12.48   0.625
  sub3                       7.48       0.00       0.00       2.73       4.59       0.03       4.63        0.10    26.20   0.619
  sub4                       7.48       0.00       0.00       0.79       6.42       0.03       6.45        0.13    29.73   0.862
  sub5                       7.48       0.00       0.00       0.48       6.86       0.04       6.90        0.08    24.56   0.923
  sub7                       7.48       0.00       0.00       0.61       6.74       0.06       6.80        0.02     8.29   0.910
  sub8                       7.48       0.00       0.00       0.62       6.73       0.05       6.79        0.04    14.89   0.908
  sub9                       7.48       0.00       0.00       0.62       6.73       0.05       6.79        0.03    11.09   0.907
  sub10                      7.48       0.00       0.00       0.55       6.79       0.05       6.84        0.08    24.34   0.915
  sub11                      7.48       0.00       0.00       0.55       6.81       0.05       6.86        0.08    27.85   0.918
  sub12                      7.48       0.00       0.00       0.89       6.46       0.08       6.54        0.06    22.41   0.875
  sub14                      7.48       0.00       0.00       0.62       6.73       0.05       6.78        0.06    21.73   0.907
  sub15                      7.48       0.00       0.00       2.17       5.17       0.07       5.24        0.09    29.70   0.701
  sub16                      7.48       0.00       0.00       2.36       4.97       0.10       5.08        0.05    20.05   0.679
  sub17                      7.48       0.00       0.00       2.29       5.04       0.10       5.14        0.04    16.33   0.688
  sub22                      7.48       0.00       0.00       3.14       4.22       0.08       4.30        0.27    95.18   0.575
  sub23                      7.48       0.00       0.00       2.68       4.67       0.08       4.75        0.23    80.64   0.636
  sub60                      7.48       0.00       0.00       0.89       5.04       0.01       5.04        1.53   153.67   0.674
  sub61                      7.48       0.00       0.00       1.26       5.23       0.01       5.23        1.61   193.14   0.700
  sub62                      7.48       0.00       0.00       0.59       5.65       0.01       5.66        1.74   197.22   0.757
  sub63                      7.48       0.00       0.00       2.16       4.60       0.01       4.61        1.40   180.34   0.617
  sub64                      7.48       0.00       0.00       1.12       4.82       0.01       4.83        1.47   145.96   0.646
  sub65                      7.48       0.00       0.00       0.97       4.90       0.01       4.90        1.51   148.09   0.656
  sub66                      7.48       0.00       0.00       2.16       4.17       0.01       4.17        1.28   133.87   0.558
  sub67                      7.48       0.00       0.00       0.59       6.06       0.01       6.07        1.87   253.26   0.812
  sub68                      7.48       0.00       0.00       1.04       5.52       0.01       5.53        1.70   213.55   0.740
  sub69                      7.48       0.00       0.00       1.11       5.81       0.02       5.83        1.36   211.81   0.779
  sub70                      7.48       5.95       0.00       4.49       7.54       0.08       7.62        1.74   179.74   0.567
  sub71                      7.48       0.00       0.00       0.59       5.46       0.01       5.47        1.29   137.58   0.732
  sub72                      7.48       0.00       0.00       0.52       4.13       0.00       4.14        0.84    66.94   0.553
  1                          7.48       7.41       0.00       1.33       8.05       1.64       9.69        2.28   177.84   0.651
  2                          7.48       0.00       0.00       2.93       1.74       0.62       2.36        0.94   130.52   0.315
  
  
  ****************************
  Subcatchment Washoff Summary
  ****************************
  
  ------------------------------------------------------------------------------------------
                                 COD            SS            TN            TP         NH4-N
  Subcatchment                    kg            kg            kg            kg            kg
  ------------------------------------------------------------------------------------------
  sub0                         1.317         2.530         0.022         0.002         0.011
  sub1                         5.321        10.352         0.099         0.007         0.047
  sub2                         3.050         5.713         0.066         0.004         0.030
  sub3                         7.387        13.652         0.157         0.010         0.072
  sub4                        11.619        22.464         0.233         0.014         0.111
  sub5                        12.311        23.656         0.215         0.016         0.104
  sub7                         2.804         5.565         0.052         0.003         0.025
  sub8                         4.188         8.475         0.083         0.005         0.040
  sub9                         3.568         7.123         0.069         0.004         0.033
  sub10                       10.174        19.810         0.184         0.013         0.089
  sub11                       10.058        19.862         0.186         0.013         0.089
  sub12                        8.516        16.554         0.151         0.011         0.073
  sub14                        7.603        15.034         0.143         0.009         0.069
  sub15                        9.065        17.101         0.175         0.013         0.081
  sub16                        5.815        10.989         0.110         0.008         0.051
  sub17                        5.340        10.001         0.098         0.008         0.046
  sub22                       26.958        49.807         0.514         0.038         0.238
  sub23                       16.311        31.250         0.352         0.023         0.160
  sub60                       93.150       163.193         1.929         0.113         0.922
  sub61                      117.673       205.854         2.239         0.148         1.074
  sub62                      123.481       219.826         2.485         0.151         1.189
  sub63                       87.759       151.509         1.832         0.125         0.841
  sub64                      112.878       190.402         2.123         0.150         1.008
  sub65                      115.667       195.939         2.193         0.152         1.043
  sub66                       66.950       114.094         1.447         0.091         0.670
  sub67                      186.213       329.841         3.349         0.240         1.613
  sub68                      131.588       233.025         2.581         0.168         1.227
  sub69                      122.560       220.836         2.330         0.159         1.108
  sub70                      188.640       338.735         3.868         0.261         1.794
  sub71                       81.456       146.096         1.746         0.097         0.833
  sub72                       56.811        93.979         1.095         0.072         0.525
  1                          111.422       201.643         2.350         0.159         1.075
  2                           15.657        26.297         0.484         0.029         0.203
  ------------------------------------------------------------------------------------------
  System                    1763.312      3121.207        34.959         2.318        16.494
  
  
  ******************
  Node Depth Summary
  ******************
  
  ---------------------------------------------------------------------------------
                                 Average  Maximum  Maximum  Time of Max    Reported
                                   Depth    Depth      HGL   Occurrence   Max Depth
  Node                 Type       Meters   Meters   Meters  days hr:min      Meters
  ---------------------------------------------------------------------------------
  WS02001211           JUNCTION     0.77     0.80     5.64     0  02:34        0.80
  WS02001212           JUNCTION     0.48     0.51     5.58     0  02:34        0.51
  WS02001213           JUNCTION     0.71     0.77     5.53     0  02:33        0.77
  WS02003069           JUNCTION     0.51     0.60     5.18     0  02:32        0.60
  WS02003072           JUNCTION     0.57     0.65     5.02     0  02:33        0.65
  WS02003073           JUNCTION     0.35     0.40     4.47     0  02:33        0.40
  WS02003060           JUNCTION     0.45     0.53     5.46     0  02:32        0.53
  WS02003066           JUNCTION     0.24     0.31     5.86     0  02:29        0.31
  WS02003059           JUNCTION     0.76     0.82     5.51     0  02:32        0.82
  WS02003067           JUNCTION     0.59     0.72     6.04     0  02:29        0.72
  WS02004401           JUNCTION     0.70     0.89     6.89     0  02:27        0.88
  WS02004402           JUNCTION     0.73     0.91     6.87     0  02:27        0.91
  WS02004403           JUNCTION     0.75     0.92     6.85     0  02:27        0.92
  WS02004404           JUNCTION     0.83     0.99     6.84     0  02:27        0.99
  WS02004406           JUNCTION     0.83     0.98     6.81     0  02:27        0.98
  WS02004409           JUNCTION     0.52     0.70     6.47     0  02:29        0.70
  WS02004410           JUNCTION     0.54     0.71     6.43     0  02:30        0.71
  WS02004411           JUNCTION     0.55     0.71     6.39     0  02:30        0.71
  WS02004412           JUNCTION     0.57     0.72     6.36     0  02:29        0.72
  WS02004413           JUNCTION     0.72     0.88     6.35     0  02:29        0.88
  WS02004405           JUNCTION     0.82     0.98     6.83     0  02:27        0.98
  WS02006109           JUNCTION     0.79     1.01     7.63     0  02:26        1.01
  WS02006110           JUNCTION     0.78     0.95     7.53     0  02:24        0.95
  WS02006111           JUNCTION     0.23     0.30     7.00     0  02:26        0.30
  WS02006112           JUNCTION     0.88     1.13     7.01     0  02:26        1.10
  WS02006113           JUNCTION     0.36     0.47     7.36     0  02:25        0.47
  WS02006115           JUNCTION     0.59     0.79     6.93     0  02:26        0.79
  WS02006116           JUNCTION     0.68     0.87     6.91     0  02:27        0.87
  WS02006230           JUNCTION     0.78     1.13     7.88     0  04:40        1.13
  WS02006231           JUNCTION     0.53     0.88     8.00     0  04:40        0.87
  WS02006232           JUNCTION     0.67     1.07     8.11     0  04:41        1.07
  WS02006234           JUNCTION     0.60     1.08     8.24     0  04:41        1.08
  WS02006235           JUNCTION     0.64     1.18     8.34     0  04:41        1.16
  WS02006238           JUNCTION     0.67     1.20     8.35     0  04:41        1.19
  WS02006240           JUNCTION     0.57     1.15     8.44     0  06:18        1.14
  WS02006242           JUNCTION     0.63     1.23     8.50     0  06:18        1.22
  WS02006243           JUNCTION     0.51     1.13     8.55     0  06:18        1.13
  WS02006245           JUNCTION     0.49     1.12     8.61     0  06:17        1.11
  WS02006247           JUNCTION     0.50     1.14     8.64     0  06:17        1.13
  WS02006248           JUNCTION     0.44     1.08     8.67     0  06:18        1.08
  WS02006249           JUNCTION     0.46     1.09     8.69     0  04:40        1.09
  WS02006239           JUNCTION     0.63     1.18     8.39     0  06:18        1.17
  WS02006251           JUNCTION     0.44     1.25     8.92     0  04:40        1.18
  WS02006252           JUNCTION     0.31     0.80     9.04     0  07:03        0.71
  WS02006253           JUNCTION     0.47     1.37     9.02     0  06:18        1.27
  WS02006256           JUNCTION     1.59     2.35     9.28     0  00:00        2.35
  WS02004138           JUNCTION     0.19     0.20     7.45     0  00:00        0.19
  WS02004139           JUNCTION     0.71     0.74     5.65     0  02:35        0.74
  WS02004407           JUNCTION     0.23     0.31     6.62     0  02:28        0.31
  WS02006228           JUNCTION     0.79     1.06     7.71     0  02:22        1.05
  WS02006229           JUNCTION     0.77     1.06     7.75     0  02:24        1.06
  WS02006280           JUNCTION     0.06     0.19     8.46     0  02:11        0.19
  WS02006284           JUNCTION     0.35     0.55     8.95     0  02:11        0.55
  WS02006287           JUNCTION     0.08     0.29     9.24     0  02:11        0.29
  WSF200               JUNCTION     0.23     0.32     5.55     0  02:29        0.32
  HS02004901           JUNCTION     0.11     0.29    10.11     0  02:09        0.29
  HS02004881           JUNCTION     0.01     0.04     9.06     0  02:11        0.04
  HS02004876           JUNCTION     0.04     0.12     9.15     0  02:11        0.12
  HS02004870           JUNCTION     0.01     0.06     9.35     0  02:11        0.06
  HS02004862           JUNCTION     0.01     0.07     9.46     0  02:12        0.07
  HS02004856           JUNCTION     0.08     0.12     9.55     0  02:12        0.12
  HS02004852           JUNCTION     0.01     0.04     9.56     0  02:12        0.04
  HS02004848           JUNCTION     0.01     0.04     9.64     0  02:11        0.04
  HS02004842           JUNCTION     0.33     0.37     9.64     0  02:11        0.37
  HS02004837           JUNCTION     0.03     0.06     9.64     0  02:11        0.06
  HS02004830           JUNCTION     0.04     0.08     9.55     0  02:11        0.08
  HS02004824           JUNCTION     0.02     0.06     9.46     0  02:14        0.06
  HS02004817           JUNCTION     0.43     0.59     9.44     0  02:12        0.59
  HS02004807           JUNCTION     0.12     0.27     9.44     0  02:12        0.27
  HS02004802           JUNCTION     0.15     0.30     9.43     0  02:11        0.30
  HS02004799           JUNCTION     0.10     0.34     9.55     0  02:10        0.34
  HS02004792           JUNCTION     0.02     0.14     9.67     0  02:09        0.14
  HS02004788           JUNCTION     0.02     0.11    10.00     0  02:10        0.11
  HS02004785           JUNCTION     0.04     0.18    10.08     0  02:10        0.18
  HS02004777           JUNCTION     0.14     0.31    10.11     0  02:09        0.31
  HS02004770           JUNCTION     0.11     0.28    10.11     0  02:09        0.28
  HS02004480           JUNCTION     0.07     0.27     9.51     0  02:10        0.27
  HS02004479           JUNCTION     0.10     0.31     9.51     0  02:10        0.31
  HS02004478           JUNCTION     0.05     0.18     9.41     0  02:11        0.18
  YS02001745           JUNCTION     0.69     0.86     8.38     0  03:22        0.86
  YS02001748           JUNCTION     1.09     1.31     8.39     0  03:24        1.30
  YS02001751           JUNCTION     1.28     2.12     9.00     0  02:40        1.51
  YS02001754           JUNCTION     1.53     2.09     8.70     0  02:40        1.79
  YS02001762           JUNCTION     1.73     2.02     8.42     0  03:24        2.01
  YS02001765           JUNCTION     1.68     1.97     8.42     0  03:37        1.95
  YS02001767           JUNCTION     1.65     1.92     8.41     0  03:22        1.91
  YS02001770           JUNCTION     1.64     1.92     8.42     0  02:59        1.90
  YS02001774           JUNCTION     1.71     1.99     8.41     0  02:59        1.96
  YS02001779           JUNCTION     1.46     1.68     8.37     0  02:32        1.68
  YS02001882           JUNCTION     0.36     0.65     7.37     0  02:38        0.65
  YS02001884           JUNCTION     0.45     0.75     7.36     0  02:29        0.75
  YS02001759           JUNCTION     1.76     2.06     8.42     0  03:22        2.04
  YS02001887           JUNCTION     0.53     0.83     7.36     0  02:37        0.82
  YS02001890           JUNCTION     0.56     0.85     7.36     0  02:37        0.85
  YS02001898           JUNCTION     0.33     0.61     7.35     0  02:37        0.61
  YS02001901           JUNCTION     0.45     0.73     7.34     0  02:36        0.73
  YS02001904           JUNCTION     0.43     0.71     7.34     0  02:36        0.70
  YS02001907           JUNCTION     0.76     1.06     7.35     0  02:25        1.04
  YS02001910           JUNCTION     0.55     0.83     7.34     0  02:34        0.83
  YS02001915           JUNCTION     0.34     0.62     7.34     0  02:27        0.62
  YS02001918           JUNCTION     0.12     0.27     7.34     0  02:37        0.27
  YS02001619           JUNCTION     1.24     1.61     8.54     0  02:42        1.46
  YS02001629           JUNCTION     1.59     1.85     8.40     0  02:51        1.83
  YS02001641           JUNCTION     1.70     1.95     8.39     0  06:02        1.93
  YS02001644           JUNCTION     1.70     1.92     8.35     0  02:59        1.92
  YS02001652           JUNCTION     1.54     2.10     8.70     0  02:36        1.87
  YS02001655           JUNCTION     1.31     2.20     9.05     0  02:31        1.68
  YS02001920           JUNCTION     0.22     0.34     7.35     0  02:52        0.34
  YS02001923           JUNCTION     0.09     0.12     7.38     0  03:01        0.12
  YS02001926           JUNCTION     0.18     0.23     7.68     0  03:01        0.23
  YS02001929           JUNCTION     0.09     0.12     7.82     0  03:01        0.12
  YS02001658           JUNCTION     1.04     2.30     9.44     0  02:43        1.44
  YS02001661           JUNCTION     0.80     1.86     9.26     0  03:22        1.24
  YS02001664           JUNCTION     0.33     0.58     8.50     0  03:04        0.56
  YS02001622           JUNCTION     1.26     1.62     8.52     0  02:47        1.48
  YS02001633           JUNCTION     1.69     1.97     8.43     0  06:02        1.92
  YS02001649           JUNCTION     1.74     2.05     8.44     0  03:02        2.03
  YS02001757           JUNCTION     1.86     2.16     8.42     0  03:24        2.14
  YS02001895           JUNCTION     0.32     0.60     7.35     0  02:37        0.60
  YS02001625           JUNCTION     1.55     1.78     8.38     0  02:51        1.78
  YS02163301           JUNCTION     1.62     1.90     8.42     0  06:02        1.86
  YS02163601           JUNCTION     1.74     2.02     8.42     0  06:02        1.97
  YS02164001           JUNCTION     1.68     1.95     8.41     0  06:02        1.90
  YS02001647           JUNCTION     1.53     1.80     8.41     0  03:14        1.78
  YSB1154              JUNCTION     0.24     0.46     9.52     0  02:10        0.46
  YSB6556              JUNCTION     0.14     0.35     9.52     0  02:10        0.35
  YSB1174              JUNCTION     0.19     0.41     9.52     0  02:10        0.41
  YSB1171              JUNCTION     0.40     0.61     9.52     0  02:10        0.61
  YS02006553           JUNCTION     0.76     1.07     7.36     0  02:25        1.05
  YS02006561           JUNCTION     0.18     0.37     7.03     0  02:36        0.36
  YS02006556           JUNCTION     0.73     1.04     7.35     0  02:36        1.02
  YS02006558           JUNCTION     0.78     1.08     7.35     0  02:36        1.05
  YS02001783           JUNCTION     0.33     1.09     7.24     0  03:13        0.81
  YS02001784           JUNCTION     0.37     1.28     7.35     0  03:13        0.83
  YS02001786           JUNCTION     0.32     1.52     7.55     0  03:13        0.80
  YS02001788           JUNCTION     0.26     1.17     7.14     0  03:13        0.80
  YS02001790           JUNCTION     0.35     1.75     7.39     0  04:27        1.07
  YS02001791           JUNCTION     0.30     1.77     7.24     0  03:11        1.18
  YS02001793           JUNCTION     0.39     2.40     7.24     0  04:22        1.78
  WSC                  OUTFALL      0.35     0.40     1.07     0  02:34        0.40
  JK-storage           STORAGE      2.01     5.80     6.60     0  03:11        5.80
  CC-storage           STORAGE      1.12     1.37     8.37     0  03:19        1.37
  XR-storage           STORAGE      4.22     6.67     4.67     0  04:04        6.67
  
  
  *******************
  Node Inflow Summary
  *******************
  
  -------------------------------------------------------------------------------------------------
                                  Maximum  Maximum                  Lateral       Total        Flow
                                  Lateral    Total  Time of Max      Inflow      Inflow     Balance
                                   Inflow   Inflow   Occurrence      Volume      Volume       Error
  Node                 Type           LPS      LPS  days hr:min    10^6 ltr    10^6 ltr     Percent
  -------------------------------------------------------------------------------------------------
  WS02001211           JUNCTION      7.35   388.95     0  03:19       0.207        9.86       0.402
  WS02001212           JUNCTION      0.00   390.43     0  03:19           0        9.82       0.238
  WS02001213           JUNCTION      0.00   391.90     0  03:18           0        9.79       0.276
  WS02003069           JUNCTION      0.32   978.08     0  02:32     0.00902        18.2       0.157
  WS02003072           JUNCTION      0.00   977.95     0  02:33           0        18.2       0.195
  WS02003073           JUNCTION      1.82   979.77     0  02:33      0.0514        18.2       0.215
  WS02003060           JUNCTION     16.53   978.07     0  02:31       0.466        18.2       0.154
  WS02003066           JUNCTION      0.00   577.37     0  02:29           0        8.02       0.044
  WS02003059           JUNCTION      0.00   394.42     0  03:18           0        9.77       0.387
  WS02003067           JUNCTION      0.00   577.23     0  02:29           0        8.03       0.097
  WS02004401           JUNCTION      0.00   581.01     0  02:27           0        8.24       0.265
  WS02004402           JUNCTION      0.00   580.96     0  02:27           0        8.22       0.249
  WS02004403           JUNCTION      0.00   580.56     0  02:27           0         8.2       0.225
  WS02004404           JUNCTION      0.16   580.25     0  02:27     0.00457        8.19       0.169
  WS02004406           JUNCTION      0.00   580.45     0  02:27           0        8.16       0.409
  WS02004409           JUNCTION      0.00   579.75     0  02:28           0        8.11       0.175
  WS02004410           JUNCTION      0.00   578.84     0  02:28           0         8.1       0.193
  WS02004411           JUNCTION      0.00   578.09     0  02:28           0        8.09       0.195
  WS02004412           JUNCTION      0.00   577.73     0  02:29           0        8.07       0.211
  WS02004413           JUNCTION      0.00   577.44     0  02:29           0        8.05       0.320
  WS02004405           JUNCTION      0.04   580.31     0  02:27     0.00107        8.18       0.255
  WS02006109           JUNCTION      1.23   572.50     0  02:24      0.0347        8.33       0.232
  WS02006110           JUNCTION      0.00   572.47     0  02:24           0        8.31       0.258
  WS02006111           JUNCTION      0.00   598.04     0  02:26           0        8.28       0.060
  WS02006112           JUNCTION     16.33   587.33     0  02:24      0.0441        8.31       0.344
  WS02006113           JUNCTION      0.00   573.22     0  02:24           0        8.29       0.139
  WS02006115           JUNCTION      0.00   594.06     0  02:26           0        8.29       0.256
  WS02006116           JUNCTION      0.00   582.20     0  02:26           0        8.27       0.246
  WS02006230           JUNCTION     10.28   534.20     0  06:21        0.29        6.98       0.193
  WS02006231           JUNCTION      0.00   523.39     0  06:21           0         6.7       0.229
  WS02006232           JUNCTION      0.00   523.03     0  06:21           0        6.71       0.273
  WS02006234           JUNCTION      0.00   523.14     0  06:21           0        6.72       0.156
  WS02006235           JUNCTION      0.00   523.67     0  06:21           0        6.75       0.174
  WS02006238           JUNCTION      0.00   417.42     0  07:10           0        3.96       0.123
  WS02006240           JUNCTION      0.00   415.60     0  07:10           0        3.95       0.420
  WS02006242           JUNCTION      0.00   415.30     0  07:10           0        3.96       0.480
  WS02006243           JUNCTION      0.00   415.05     0  07:10           0        3.97       0.300
  WS02006245           JUNCTION      0.00   415.52     0  07:10           0        3.99       0.437
  WS02006247           JUNCTION      0.00   415.66     0  07:10           0           4       0.286
  WS02006248           JUNCTION      0.00   415.87     0  07:10           0        4.01       0.208
  WS02006249           JUNCTION      0.00   426.18     0  07:03           0        4.07       0.421
  WS02006239           JUNCTION      0.00   416.74     0  07:10           0        3.95       0.163
  WS02006251           JUNCTION      0.08   411.93     0  07:03     0.00217        4.13       0.391
  WS02006252           JUNCTION      0.00   400.00     0  05:50           0        3.84       0.013
  WS02006253           JUNCTION      2.34   111.20     0  07:02     0.00564       0.302       3.795
  WS02006256           JUNCTION      0.00   983.00     0  00:00           0        6.46      -0.003
  WS02004138           JUNCTION      0.00   380.00     0  00:00           0        9.69       0.062
  WS02004139           JUNCTION      0.32   396.51     0  00:00     0.00905        9.69       0.461
  WS02004407           JUNCTION      0.00   580.03     0  02:27           0        8.12       0.089
  WS02006228           JUNCTION      0.00   571.30     0  02:24           0        8.31       0.195
  WS02006229           JUNCTION      0.00   571.16     0  02:24           0        8.33       0.178
  WS02006280           JUNCTION      0.00   381.59     0  02:12           0        1.38       0.005
  WS02006284           JUNCTION      0.10   381.53     0  02:11      0.0027        1.38       0.089
  WS02006287           JUNCTION      0.00   381.39     0  02:11           0        1.37       0.052
  WSF200               JUNCTION      0.00   577.44     0  02:29           0        8.02       0.034
  HS02004901           JUNCTION     20.05    20.05     0  02:06      0.0531      0.0533       3.410
  HS02004881           JUNCTION      8.29    76.32     0  02:11      0.0229       0.245       0.072
  HS02004876           JUNCTION     13.82    68.66     0  02:11       0.044       0.223       0.241
  HS02004870           JUNCTION     14.89    55.12     0  02:11      0.0434       0.179       0.058
  HS02004862           JUNCTION     12.68    41.04     0  02:11      0.0492       0.136       0.125
  HS02004856           JUNCTION     11.09    28.46     0  02:11      0.0326      0.0881       1.661
  HS02004852           JUNCTION      0.00    17.97     0  02:11           0      0.0555       0.094
  HS02004848           JUNCTION     26.20    26.20     0  02:13       0.104       0.104       0.041
  HS02004842           JUNCTION      0.00     9.04     0  02:21           0      0.0617      26.705
  HS02004837           JUNCTION     30.69    38.32     0  02:10       0.254       0.303       0.268
  HS02004830           JUNCTION      0.15    38.44     0  02:11     0.00423       0.294       0.422
  HS02004824           JUNCTION     29.78    68.00     0  02:13       0.136       0.428       0.125
  HS02004817           JUNCTION      0.60    68.59     0  02:14      0.0169       0.445       3.895
  HS02004807           JUNCTION     27.85    94.45     0  02:12      0.0797       0.508       0.839
  HS02004802           JUNCTION      0.00    95.04     0  02:13           0       0.503       0.813
  HS02004799           JUNCTION     21.73   244.09     0  02:09      0.0645       0.755       0.318
  HS02004792           JUNCTION     95.46   222.68     0  02:09       0.279        0.69       0.058
  HS02004788           JUNCTION     31.37   129.30     0  02:10       0.137       0.412       0.095
  HS02004785           JUNCTION      0.15    98.30     0  02:09     0.00423       0.277       0.174
  HS02004777           JUNCTION      0.03    98.64     0  02:08    0.000846       0.277       1.905
  HS02004770           JUNCTION     80.64    99.64     0  02:07       0.227       0.278       1.124
  HS02004480           JUNCTION      0.00   288.44     0  02:10           0       0.887       0.092
  HS02004479           JUNCTION      0.00    45.10     0  02:11           0       0.144       0.508
  HS02004478           JUNCTION      0.00   381.37     0  02:11           0        1.38       0.044
  YS02001745           JUNCTION    153.68   212.44     0  02:41        1.53        1.53       0.567
  YS02001748           JUNCTION      0.04   350.21     0  02:41     0.00127        1.52       1.479
  YS02001751           JUNCTION      0.01   306.54     0  02:39     0.00031         1.5       1.552
  YS02001754           JUNCTION      0.26   221.99     0  02:33     0.00733        1.48       1.673
  YS02001762           JUNCTION      0.00   230.14     0  02:35           0        1.58       1.350
  YS02001765           JUNCTION      0.00   226.62     0  02:35           0        1.58       1.552
  YS02001767           JUNCTION      0.54   223.00     0  02:35      0.0151         1.6       2.269
  YS02001770           JUNCTION    197.38   211.16     0  02:35        1.74        1.75       1.819
  YS02001774           JUNCTION      0.00    84.75     0  03:24           0        0.14      21.578
  YS02001779           JUNCTION      0.01    85.09     0  03:24    0.000141       0.107      16.601
  YS02001882           JUNCTION      0.00    14.92     0  02:22           0       0.014      16.136
  YS02001884           JUNCTION      0.00    17.93     0  02:22           0      0.0438      14.220
  YS02001759           JUNCTION    193.18   425.21     0  02:35        1.61        3.16       0.722
  YS02001887           JUNCTION    253.71   271.55     0  02:24        1.89        1.91       0.408
  YS02001890           JUNCTION      0.00   265.25     0  02:26           0        1.87       0.455
  YS02001898           JUNCTION      0.00   271.39     0  02:23           0        1.86       0.145
  YS02001901           JUNCTION      0.00   272.79     0  02:25           0        1.86       0.332
  YS02001904           JUNCTION      0.00   268.19     0  02:31           0        1.85       0.307
  YS02001907           JUNCTION      0.00   472.72     0  02:28           0        4.05       0.571
  YS02001910           JUNCTION      0.00   225.42     0  02:53           0         2.2       0.497
  YS02001915           JUNCTION    137.60   220.31     0  02:53        1.29        2.21       0.238
  YS02001918           JUNCTION      0.00    77.19     0  02:53           0       0.919       0.168
  YS02001619           JUNCTION    133.87   133.87     0  02:40        1.28        1.28       0.940
  YS02001629           JUNCTION      0.00   221.59     0  02:31           0        1.21       2.370
  YS02001641           JUNCTION      0.00   334.76     0  02:46           0        2.61       0.811
  YS02001644           JUNCTION    146.00   656.89     0  03:22        1.47        4.92       0.528
  YS02001652           JUNCTION      0.00   253.57     0  02:42           0        1.36       1.796
  YS02001655           JUNCTION      0.15   416.12     0  02:32     0.00434        1.38       1.746
  YS02001920           JUNCTION      2.87    69.86     0  03:01      0.0809       0.922       0.272
  YS02001923           JUNCTION      0.04    67.00     0  03:01     0.00106       0.841       0.050
  YS02001926           JUNCTION      0.05    66.98     0  03:01     0.00147       0.843       0.337
  YS02001929           JUNCTION     66.94    66.94     0  03:01       0.842       0.842       0.048
  YS02001658           JUNCTION      0.00   602.24     0  02:43           0        1.45       1.386
  YS02001661           JUNCTION      0.00   544.43     0  03:04           0           2      -0.200
  YS02001664           JUNCTION    180.34   390.48     0  03:04         1.4        1.95       0.183
  YS02001622           JUNCTION      0.00   170.92     0  02:33           0        1.27       2.554
  YS02001633           JUNCTION    148.29   338.50     0  02:46        1.51        2.68       1.200
  YS02001649           JUNCTION      0.00   651.85     0  02:36           0        3.86       0.973
  YS02001757           JUNCTION      0.00  1166.56     0  02:42           0        7.52       1.234
  YS02001895           JUNCTION      0.00   267.24     0  02:25           0        1.86       0.230
  YS02001625           JUNCTION      0.00   221.26     0  02:31           0        1.24       3.243
  YS02163301           JUNCTION      0.00   190.38     0  02:46           0         1.2       2.021
  YS02163601           JUNCTION      0.11   338.60     0  02:46      0.0031        2.63       1.148
  YS02164001           JUNCTION      0.00   337.51     0  02:46           0        2.61       0.761
  YS02001647           JUNCTION      0.00   486.91     0  02:46           0        2.99       0.943
  YSB1154              JUNCTION     24.56    24.56     0  02:09      0.0782      0.0793       1.852
  YSB6556              JUNCTION      0.00    24.52     0  02:10           0      0.0802       1.580
  YSB1174              JUNCTION     22.41    22.41     0  02:06      0.0572      0.0579       2.267
  YSB1171              JUNCTION      0.00    44.96     0  02:10           0       0.144       4.609
  YS02006553           JUNCTION      0.00   468.43     0  02:39           0        4.03       0.371
  YS02006561           JUNCTION      0.00   714.73     0  02:25           0        5.71       0.012
  YS02006556           JUNCTION      0.00   470.46     0  02:39           0        4.04       0.265
  YS02006558           JUNCTION    214.43   722.22     0  02:25        1.72        5.74       0.078
  YS02001783           JUNCTION      0.00   689.70     0  02:28           0        5.71       0.029
  YS02001784           JUNCTION      1.06   707.06     0  02:29      0.0299        5.74       0.052
  YS02001786           JUNCTION      0.06   711.71     0  02:29     0.00159        5.73       0.049
  YS02001788           JUNCTION      0.07   733.18     0  02:29       0.002        5.73       0.033
  YS02001790           JUNCTION      0.15   759.77     0  02:28     0.00437        5.74       0.022
  YS02001791           JUNCTION      0.00   799.63     0  02:29           0        5.74      -0.008
  YS02001793           JUNCTION      0.00   839.30     0  02:29           0        5.74      -0.058
  WSC                  OUTFALL       0.00   979.78     0  02:34           0        18.1       0.000
  JK-storage           STORAGE       0.00   915.27     0  02:17           0         5.9     -15.462
  CC-storage           STORAGE       0.00  1167.86     0  02:42           0        6.99       0.840
  XR-storage           STORAGE     482.07   482.07     0  02:45        8.86        9.46      -2.396
  
  
  **********************
  Node Surcharge Summary
  **********************
  
  Surcharging occurs when water rises above the top of the highest conduit.
  ---------------------------------------------------------------------
                                               Max. Height   Min. Depth
                                   Hours       Above Crown    Below Rim
  Node                 Type      Surcharged         Meters       Meters
  ---------------------------------------------------------------------
  WS02006109           JUNCTION        3.34          0.192        1.628
  WS02006110           JUNCTION        0.71          0.039        1.811
  WS02006112           JUNCTION        1.01          0.125        1.555
  WS02006230           JUNCTION        0.30          0.050        1.520
  WS02006231           JUNCTION        0.61          0.166        1.364
  WS02006232           JUNCTION        3.16          0.369        1.111
  WS02006234           JUNCTION        2.33          0.360        0.880
  WS02006235           JUNCTION        2.65          0.468        0.822
  WS02006238           JUNCTION        2.77          0.482        0.948
  WS02006240           JUNCTION        2.10          0.439        0.951
  WS02006242           JUNCTION        2.41          0.497        0.323
  WS02006243           JUNCTION        1.08          0.422        0.348
  WS02006245           JUNCTION        0.97          0.411        0.439
  WS02006247           JUNCTION        1.02          0.425        0.335
  WS02006248           JUNCTION        0.79          0.362        0.018
  WS02006249           JUNCTION        0.88          0.390        0.000
  WS02006239           JUNCTION        2.24          0.444        0.846
  WS02006251           JUNCTION        0.29          0.217        0.963
  WS02006252           JUNCTION        1.46          0.403        0.697
  WS02006253           JUNCTION        0.31          0.335        2.145
  WS02006256           JUNCTION        6.32          2.050        0.000
  WS02006228           JUNCTION        3.31          0.231        1.969
  YS02001748           JUNCTION        4.77          0.235        0.955
  YS02001751           JUNCTION        5.18          1.117        0.083
  YS02001754           JUNCTION        5.44          1.040        0.110
  YS02001762           JUNCTION        5.63          1.024        0.126
  YS02001765           JUNCTION        5.61          0.968        0.132
  YS02001767           JUNCTION        5.60          0.923        0.107
  YS02001770           JUNCTION        5.59          0.893        0.027
  YS02001774           JUNCTION        5.62          0.987        0.063
  YS02001779           JUNCTION        5.44          0.680        0.000
  YS02001759           JUNCTION        5.64          1.060        0.150
  YS02001907           JUNCTION        0.82          0.053        0.897
  YS02001619           JUNCTION        5.16          0.610        0.000
  YS02001629           JUNCTION        5.19          0.470        0.000
  YS02001641           JUNCTION        5.61          0.952        0.148
  YS02001644           JUNCTION        5.61          0.920        0.000
  YS02001652           JUNCTION        5.47          1.072        0.058
  YS02001655           JUNCTION        5.22          1.200        0.000
  YS02001658           JUNCTION        4.85          1.300        0.000
  YS02001661           JUNCTION        0.15          0.789        0.601
  YS02001622           JUNCTION        5.23          0.620        0.000
  YS02001633           JUNCTION        5.60          0.951        0.109
  YS02001649           JUNCTION        5.63          1.050        0.000
  YS02001757           JUNCTION        5.67          1.164        0.046
  YS02001625           JUNCTION        5.58          0.780        0.000
  YS02163301           JUNCTION        5.59          0.900        0.130
  YS02163601           JUNCTION        5.63          1.020        0.060
  YS02164001           JUNCTION        5.61          0.949        0.151
  YS02001647           JUNCTION        5.52          0.801        0.099
  YS02006553           JUNCTION        0.92          0.074        1.116
  YS02001783           JUNCTION        0.02          0.295        1.305
  YS02001784           JUNCTION        0.05          0.483        1.007
  YS02001786           JUNCTION        0.01          0.722        0.708
  YS02001788           JUNCTION        0.01          0.368        1.112
  YS02001790           JUNCTION        0.53          0.946        0.211
  YS02001791           JUNCTION        0.72          0.968        0.952
  YS02001793           JUNCTION        1.09          1.403        1.197
  
  
  *********************
  Node Flooding Summary
  *********************
  
  Flooding refers to all water that overflows a node, whether it ponds or not.
  --------------------------------------------------------------------------
                                                             Total   Maximum
                                 Maximum   Time of Max       Flood    Ponded
                        Hours       Rate    Occurrence      Volume     Depth
  Node                 Flooded       LPS   days hr:min    10^6 ltr    Meters
  --------------------------------------------------------------------------
  WS02006249              0.26    103.07      0  04:40       0.043     0.000
  WS02006256              2.59    978.40      0  00:00       3.642     0.000
  YS02001779              1.36     84.94      0  03:24       0.087     0.000
  YS02001619              0.01      9.39      0  02:47       0.000     0.000
  YS02001629              0.01      7.11      0  02:51       0.000     0.000
  YS02001644              2.86    656.74      0  03:22       2.758     0.000
  YS02001655              0.01    242.57      0  02:36       0.000     0.000
  YS02001658              0.01    254.50      0  02:43       0.000     0.000
  YS02001622              0.01     26.84      0  02:47       0.000     0.000
  YS02001649              0.02     28.02      0  03:22       0.000     0.000
  YS02001625              0.05     15.34      0  03:01       0.001     0.000
  JK-storage              0.28    571.14      0  03:13       0.341     0.000
  
  
  **********************
  Storage Volume Summary
  **********************
  
  --------------------------------------------------------------------------------------------------
                         Average     Avg  Evap Exfil       Maximum     Max    Time of Max    Maximum
                          Volume    Pcnt  Pcnt  Pcnt        Volume    Pcnt     Occurrence    Outflow
  Storage Unit           1000 m3    Full  Loss  Loss       1000 m3    Full    days hr:min        LPS
  --------------------------------------------------------------------------------------------------
  JK-storage               0.101      35     0     0         0.291     100       0  03:11     983.00
  CC-storage               3.131      20     0     0         3.819      24       0  03:19     400.00
  XR-storage               0.507      55     0     0         0.801      86       0  04:04     380.00
  
  
  ***********************
  Outfall Loading Summary
  ***********************
  
  ---------------------------------------------------------------------------------------------------------------------------------
                         Flow       Avg       Max       Total         Total         Total         Total         Total         Total
                         Freq      Flow      Flow      Volume           COD            SS            TN            TP         NH4-N
  Outfall Node           Pcnt       LPS       LPS    10^6 ltr            kg            kg            kg            kg            kg
  ---------------------------------------------------------------------------------------------------------------------------------
  WSC                   99.98    759.72    979.78      18.137      2188.807      3633.117       163.104        19.671       100.031
  ---------------------------------------------------------------------------------------------------------------------------------
  System                99.98    759.72    979.78      18.137      2188.807      3633.117       163.104        19.671       100.031
  
  
  ********************
  Link Flow Summary
  ********************
  
  -----------------------------------------------------------------------------
                                 Maximum  Time of Max   Maximum    Max/    Max/
                                  |Flow|   Occurrence   |Veloc|    Full    Full
  Link                 Type          LPS  days hr:min     m/sec    Flow   Depth
  -----------------------------------------------------------------------------
  WS02003066WSF200     CONDUIT    577.44     0  02:29      2.79    0.10    0.24
  WS02006287WS02006284 CONDUIT    381.43     0  02:11      1.99    0.18    0.29
  WS02006284WS02006280 CONDUIT    381.59     0  02:12      2.23    0.16    0.27
  WS02006280WS02006229 CONDUIT    381.60     0  02:12      3.59    0.08    0.19
  WS02006229WS02006228 CONDUIT    571.30     0  02:24      1.14    1.89    1.00
  WS02006256WS02006235 CONDUIT    288.60     0  00:00      4.23    3.05    1.00
  WS02006253WS02006251 CONDUIT    110.72     0  07:02      0.61    0.33    1.00
  WS02006252WS02006251 CONDUIT    403.93     0  07:03      3.21    1.48    1.00
  WS02006251WS02006249 CONDUIT    426.18     0  07:03      1.13    1.23    1.00
  WS02006249WS02006248 CONDUIT    415.87     0  07:10      1.19    2.28    1.00
  WS02006248WS02006247 CONDUIT    415.66     0  07:10      1.17    0.90    1.00
  WS02006247WS02006245 CONDUIT    415.52     0  07:10      1.14    3.29    1.00
  WS02006245WS02006243 CONDUIT    415.05     0  07:10      1.18    1.23    1.00
  WS02006243WS02006242 CONDUIT    415.30     0  07:10      1.08    0.89    1.00
  WS02006242WS02006240 CONDUIT    415.60     0  07:10      1.08    1.65    1.00
  WS02006240WS02006239 CONDUIT    416.74     0  07:10      1.08    1.31    1.00
  WS02006239WS02006238 CONDUIT    417.42     0  07:10      1.08    1.34    1.00
  WS02006238WS02006235 CONDUIT    419.51     0  07:10      1.46    0.94    1.00
  WS02006235WS02006234 CONDUIT    523.14     0  06:21      1.36    5.52    1.00
  WS02006234WS02006232 CONDUIT    523.03     0  06:21      1.39    1.06    1.00
  WS02006232WS02006231 CONDUIT    523.39     0  06:21      1.36    1.10    1.00
  WS02006231WS02006230 CONDUIT    523.92     0  06:21      1.36    7.95    1.00
  WS02006230WS02006229 CONDUIT    534.66     0  06:21      1.39   11.90    1.00
  WS02006228WS02006109 CONDUIT    571.27     0  02:24      1.14    2.50    1.00
  WS02006116WS02004401 CONDUIT    581.01     0  02:27      0.80    0.80    0.88
  WS02006115WS02006116 CONDUIT    582.20     0  02:26      0.89    0.75    0.80
  WS02006113WS02006111 CONDUIT    598.04     0  02:26      2.52    0.72    0.48
  WS02006112WS02006115 CONDUIT    594.06     0  02:26      0.81    0.35    0.89
  WS02006111WS02006112 CONDUIT    578.11     0  02:26      1.59    0.27    0.68
  WS02006110WS02006113 CONDUIT    573.22     0  02:24      1.34    0.52    0.79
  WS02006109WS02006110 CONDUIT    572.47     0  02:24      1.14    1.10    1.00
  WS02004411WS02004412 CONDUIT    577.73     0  02:29      0.96    0.82    0.72
  WS02004401WS02004402 CONDUIT    580.96     0  02:27      0.78    0.70    0.90
  WS02004413WS02003067 CONDUIT    577.23     0  02:29      1.16    0.25    0.61
  WS02004412WS02004413 CONDUIT    577.44     0  02:29      0.86    0.39    0.80
  WS02004410WS02004411 CONDUIT    578.09     0  02:28      0.97    0.79    0.71
  WS02004409WS02004410 CONDUIT    578.84     0  02:28      0.99    0.75    0.70
  WS02004407WS02004409 CONDUIT    579.75     0  02:28      1.49    0.21    0.50
  WS02004406WS02004407 CONDUIT    580.03     0  02:27      1.09    0.26    0.64
  WS02004405WS02004406 CONDUIT    580.45     0  02:27      0.74    1.14    0.98
  WS02004404WS02004405 CONDUIT    580.28     0  02:27      0.74    5.69    0.99
  WS02004403WS02004404 CONDUIT    580.09     0  02:27      0.75    0.42    0.96
  WS02004402WS02004403 CONDUIT    580.56     0  02:27      0.77    0.83    0.92
  WS02004139WS02001211 CONDUIT    381.60     0  03:19      0.90    0.48    0.60
  WS02004138WS02004139 CONDUIT    396.19     0  00:00      3.65    0.08    0.44
  WS02003067WS02003066 CONDUIT    577.37     0  02:29      1.26    0.19    0.43
  WS02001213WS02003059 CONDUIT    394.42     0  03:18      0.88    0.65    0.78
  WS02001212WS02001213 CONDUIT    391.90     0  03:18      1.32    0.60    0.48
  WS02001211WS02001212 CONDUIT    390.43     0  03:19      0.78    0.30    0.66
  WS02003072WS02003073 CONDUIT    977.95     0  02:33      1.75    2.11    0.50
  WS02003069WS02003072 CONDUIT    977.95     0  02:33      1.64    0.47    0.52
  WS02003060WS02003069 CONDUIT    977.76     0  02:32      1.88    0.38    0.47
  WS02003059WS02003060 CONDUIT    397.94     0  03:18      0.95    0.26    0.67
  HS02004901HS02004770 CONDUIT     19.28     0  02:08      0.07    0.07    0.41
  HS02004876HS02004881 CONDUIT     68.65     0  02:12      0.90    0.73    0.11
  HS02004870HS02004876 CONDUIT     55.08     0  02:11      0.62    0.04    0.13
  HS02004842HS02004848 CONDUIT      9.04     0  02:21      0.04    0.01    0.30
  HS02004837HS02004842 CONDUIT      9.42     0  02:22      0.42    0.01    0.31
  HS02004830HS02004837 CONDUIT     38.29     0  02:11      0.54    0.04    0.10
  HS02004824HS02004830 CONDUIT     38.43     0  02:12      0.57    0.05    0.10
  HS02004817HS02004824 CONDUIT     67.99     0  02:14      0.21    0.03    0.46
  HS02004770HS02004777 CONDUIT     98.61     0  02:08      0.34    0.18    0.42
  HS02004799HS02004480 CONDUIT    243.78     0  02:10      0.81    0.31    0.43
  HS02004792HS02004799 CONDUIT    222.57     0  02:09      0.92    0.14    0.35
  HS02004788HS02004792 CONDUIT    129.19     0  02:10      1.04    0.09    0.18
  HS02004785HS02004788 CONDUIT     98.21     0  02:10      0.69    0.74    0.20
  HS02004777HS02004785 CONDUIT     98.15     0  02:09      0.40    0.12    0.35
  HS02004480HS02004478 CONDUIT    288.46     0  02:10      1.24    1.21    0.33
  HS02004479HS02004480 CONDUIT     45.40     0  02:12      0.18    0.04    0.42
  HS02004862HS02004870 CONDUIT     40.99     0  02:12      0.62    0.04    0.09
  HS02004848HS02004852 CONDUIT     17.97     0  02:11      0.42    0.02    0.06
  HS02004856HS02004862 CONDUIT     28.41     0  02:12      0.46    0.03    0.09
  HS02004852HS02004856 CONDUIT     17.91     0  02:12      0.22    0.02    0.12
  HS02004802HS02004478 CONDUIT     95.81     0  02:14      0.41    0.08    0.35
  HS02004478WS02006287 CONDUIT    381.39     0  02:11      1.69    0.11    0.25
  HS02004817HS02004807 CONDUIT     69.61     0  02:15      0.16    0.04    0.61
  HS02004807HS02004802 CONDUIT     95.04     0  02:13      0.35    0.18    0.40
  YS02001759YS02001757 CONDUIT    426.37     0  02:35      0.54    0.30    1.00
  YS02001762YS02001759 CONDUIT    232.22     0  02:35      0.30    0.27    1.00
  YS02001765YS02001762 CONDUIT    230.14     0  02:35      0.29    0.22    1.00
  YS02001770YS02001767 CONDUIT    222.47     0  02:35      0.30    0.88    1.00
  YS02001774YS02001770 CONDUIT     84.75     0  03:24      0.14    0.05    1.00
  YS02001779YS02001774 CONDUIT     85.09     0  03:24      0.11    0.04    1.00
  YS02001649YS02001757 CONDUIT    655.42     0  02:36      0.83    0.40    1.00
  YS02001767YS02001765 CONDUIT    226.62     0  02:35      0.29    0.29    1.00
  YS02006561YS02001783 CONDUIT    689.70     0  02:28      2.13    0.36    0.71
  YS02001783YS02001784 CONDUIT    706.00     0  02:29      1.59    0.97    1.00
  YS02001784YS02001785 CONDUIT    711.65     0  02:29      1.72    1.66    1.00
  YS02001788YS02001790 CONDUIT    759.62     0  02:28      2.25    0.56    1.00
  YS02001790YS02001791 CONDUIT    799.63     0  02:29      2.73    0.87    1.00
  YS02001791YS02001793 CONDUIT    839.30     0  02:29      5.57    0.36    1.00
  YS02001910YS02001907 CONDUIT    227.22     0  02:53      0.49    0.13    0.92
  YS02001786YS02001788 CONDUIT    733.11     0  02:29      2.17    1.41    1.00
  YS02001915YS02001910 CONDUIT    225.42     0  02:53      0.46    0.11    0.72
  YS02001918YS02001915 CONDUIT     86.51     0  02:53      0.44    0.05    0.44
  YS02001923YS02001920 CONDUIT     66.99     0  03:01      0.59    0.03    0.23
  YS02001926YS02001923 CONDUIT     66.96     0  03:01      0.66    0.10    0.19
  YS02001929YS02001926 CONDUIT     66.93     0  03:01      0.71    0.03    0.18
  YS02001920YS02001918 CONDUIT     77.19     0  02:53      0.58    0.07    0.30
  YS02001629YS02163301 CONDUIT    190.38     0  02:46      0.24    0.23    1.00
  YS02001619YS02001622 CONDUIT    170.92     0  02:33      0.75    0.25    1.00
  YS02001622YS02001625 CONDUIT    221.26     0  02:31      0.32    0.12    1.00
  YS02001625YS02001629 CONDUIT    221.59     0  02:31      0.29    0.11    1.00
  YS02163301YS02001633 CONDUIT    190.36     0  02:46      0.24    0.18    1.00
  YS02163601YS02164001 CONDUIT    337.51     0  02:46      0.43    0.30    1.00
  YS02164001YS02001641 CONDUIT    334.76     0  02:46      0.43    0.46    1.00
  YS02001641YS02001644 CONDUIT    338.68     0  02:46      0.43    1.09    1.00
  YS02001647YS02001649 CONDUIT    489.72     0  02:46      0.62    0.26    1.00
  YS02006553YS02006556 CONDUIT    470.46     0  02:39      0.60    0.40    1.00
  YS02006556YS02006558 CONDUIT    509.85     0  02:25      0.65    0.40    1.00
  YSB6556YSB1171       CONDUIT     24.81     0  02:12      0.09    0.03    0.69
  YS02001907YS02006553 CONDUIT    468.43     0  02:39      0.52    0.55    1.00
  YS02006558YS02006561 CONDUIT    714.73     0  02:25      3.25    1.58    0.76
  YS02001633YS02163601 CONDUIT    338.49     0  02:46      0.43    0.36    1.00
  YS02001644YS02001647 CONDUIT    486.91     0  02:46      0.62    0.29    1.00
  YS02001745YS02001748 CONDUIT    350.16     0  02:41      1.64    0.13    0.93
  YS02001748YS02001751 CONDUIT    306.53     0  02:39      1.22    0.15    1.00
  YS02001751YS02001754 CONDUIT    221.73     0  02:33      0.91    0.11    1.00
  YS02001754YS02001757 CONDUIT    218.65     0  02:33      0.33    0.09    1.00
  YS02001882YS02001884 CONDUIT     14.92     0  02:22      0.08    0.02    0.67
  YS02001884YS02001887 CONDUIT     19.19     0  02:24      0.05    0.03    0.76
  YS02001890YS02001895 CONDUIT    267.24     0  02:25      0.44    0.12    0.73
  YS02001895YS02001898 CONDUIT    271.39     0  02:23      0.58    0.47    0.59
  YS02001898YS02001901 CONDUIT    272.79     0  02:25      0.50    0.18    0.67
  YS02001901YS02001904 CONDUIT    268.19     0  02:31      0.45    0.42    0.72
  YS02001904YS02001907 CONDUIT    269.51     0  02:25      0.38    0.09    0.85
  YS02001887YS02001890 CONDUIT    265.25     0  02:26      0.39    0.45    0.82
  YS02001652YS02001649 CONDUIT    253.30     0  02:42      0.40    0.13    1.00
  YS02001655YS02001652 CONDUIT    253.57     0  02:42      0.94    0.12    1.00
  YS02001658YS02001655 CONDUIT    415.96     0  02:32      1.41    0.18    1.00
  YS02001661YS02001658 CONDUIT    602.24     0  02:43      1.72    0.24    1.00
  YS02001664YS02001661 CONDUIT    544.43     0  03:04      1.54    0.17    0.71
  YSB1154YSB6556       CONDUIT     24.52     0  02:10      0.19    0.04    0.58
  YSB1174YSB1171       CONDUIT     21.38     0  02:07      0.08    0.03    0.69
  YSB1171HS02004479    CONDUIT     45.10     0  02:11      0.54    0.03    0.55
  HS02004881HS02006253 CONDUIT     76.32     0  02:11      2.16    0.01    0.50
  YS02001793JiankangQianchi CONDUIT    915.27     0  02:17     17.40    0.07    1.00
  YS02001757CaochengTiaoxuchi CONDUIT   1167.86     0  02:42      2.38    0.51    1.00
  WSF200WS02003060     CONDUIT    577.67     0  02:30      1.63    0.13    0.35
  1                    CONDUIT    979.78     0  02:34      3.31    0.34    0.40
  CC-Pump-1            PUMP       200.00     0  03:20              1.00
  CC-Pump-2            PUMP       200.00     0  05:50              1.00
  JK-Pump-1            PUMP       300.00     0  00:00              1.00
  JK-Pump-2            PUMP       683.00     0  00:00              1.00
  XR-Pump-1            PUMP        95.00     0  00:00              1.00
  XR-Pump-2            PUMP        95.00     0  00:00              1.00
  XR-Pump-3            PUMP        95.00     0  00:00              1.00
  XR-Pump-4            PUMP        95.00     0  00:00              1.00
  
  
  ***************************
  Flow Classification Summary
  ***************************
  
  -------------------------------------------------------------------------------------
                      Adjusted    ---------- Fraction of Time in Flow Class ---------- 
                       /Actual         Up    Down  Sub   Sup   Up    Down  Norm  Inlet 
  Conduit               Length    Dry  Dry   Dry   Crit  Crit  Crit  Crit  Ltd   Ctrl  
  -------------------------------------------------------------------------------------
  WS02003066WSF200        1.00   0.01  0.06  0.00  0.00  0.93  0.00  0.00  0.55  0.00
  WS02006287WS02006284    1.00   0.02  0.02  0.00  0.70  0.26  0.00  0.00  0.75  0.00
  WS02006284WS02006280    1.00   0.03  0.00  0.00  0.00  0.00  0.00  0.97  0.00  0.00
  WS02006280WS02006229    1.00   0.03  0.00  0.00  0.00  0.00  0.00  0.97  0.00  0.00
  WS02006229WS02006228    1.00   0.00  0.00  0.00  1.00  0.00  0.00  0.00  0.00  0.00
  WS02006256WS02006235    1.00   0.00  0.00  0.00  1.00  0.00  0.00  0.00  0.00  0.00
  WS02006253WS02006251    1.00   0.01  0.01  0.00  0.97  0.00  0.00  0.00  0.00  0.00
  WS02006252WS02006251    1.00   0.20  0.00  0.00  0.02  0.00  0.78  0.00  0.00  0.00
  WS02006251WS02006249    1.00   0.00  0.00  0.00  1.00  0.00  0.00  0.00  0.25  0.00
  WS02006249WS02006248    1.00   0.00  0.01  0.00  0.91  0.00  0.08  0.00  0.00  0.00
  WS02006248WS02006247    1.00   0.01  0.00  0.00  0.98  0.00  0.00  0.01  0.15  0.00
  WS02006247WS02006245    1.00   0.01  0.00  0.00  0.97  0.00  0.00  0.02  0.00  0.00
  WS02006245WS02006243    1.00   0.00  0.00  0.00  0.93  0.00  0.00  0.07  0.01  0.00
  WS02006243WS02006242    1.00   0.00  0.00  0.00  1.00  0.00  0.00  0.00  0.27  0.00
  WS02006242WS02006240    1.00   0.00  0.00  0.00  1.00  0.00  0.00  0.00  0.00  0.00
  WS02006240WS02006239    1.00   0.00  0.00  0.00  0.94  0.00  0.00  0.06  0.01  0.00
  WS02006239WS02006238    1.00   0.00  0.00  0.00  1.00  0.00  0.00  0.00  0.20  0.00
  WS02006238WS02006235    1.00   0.00  0.00  0.00  1.00  0.00  0.00  0.00  0.00  0.00
  WS02006235WS02006234    1.00   0.00  0.00  0.00  0.95  0.00  0.05  0.00  0.00  0.00
  WS02006234WS02006232    1.00   0.00  0.00  0.00  1.00  0.00  0.00  0.00  0.15  0.00
  WS02006232WS02006231    1.00   0.00  0.00  0.00  1.00  0.00  0.00  0.00  0.00  0.00
  WS02006231WS02006230    1.00   0.00  0.00  0.00  0.68  0.00  0.32  0.00  0.00  0.00
  WS02006230WS02006229    1.00   0.00  0.00  0.00  1.00  0.00  0.00  0.00  0.01  0.00
  WS02006228WS02006109    1.00   0.00  0.00  0.00  1.00  0.00  0.00  0.00  0.00  0.00
  WS02006116WS02004401    1.00   0.01  0.00  0.00  0.99  0.00  0.00  0.00  0.01  0.00
  WS02006115WS02006116    1.00   0.01  0.00  0.00  0.98  0.00  0.00  0.02  0.01  0.00
  WS02006113WS02006111    1.00   0.00  0.00  0.00  0.00  0.99  0.00  0.00  0.13  0.00
  WS02006112WS02006115    1.00   0.01  0.00  0.00  0.99  0.00  0.00  0.00  0.00  0.00
  WS02006111WS02006112    1.00   0.01  0.00  0.00  0.99  0.00  0.00  0.00  0.98  0.00
  WS02006110WS02006113    1.00   0.00  0.00  0.00  1.00  0.00  0.00  0.00  0.00  0.00
  WS02006109WS02006110    1.00   0.00  0.00  0.00  1.00  0.00  0.00  0.00  0.00  0.00
  WS02004411WS02004412    1.00   0.05  0.00  0.00  0.95  0.00  0.00  0.00  0.00  0.00
  WS02004401WS02004402    1.00   0.01  0.00  0.00  0.99  0.00  0.00  0.00  0.01  0.00
  WS02004413WS02003067    1.00   0.05  0.01  0.00  0.00  0.00  0.94  0.00  0.00  0.00
  WS02004412WS02004413    1.00   0.05  0.00  0.00  0.95  0.00  0.00  0.00  0.01  0.00
  WS02004410WS02004411    1.00   0.05  0.00  0.00  0.95  0.00  0.00  0.00  0.00  0.00
  WS02004409WS02004410    1.00   0.05  0.00  0.00  0.95  0.00  0.00  0.00  0.00  0.00
  WS02004407WS02004409    1.00   0.05  0.00  0.00  0.95  0.00  0.00  0.00  0.78  0.00
  WS02004406WS02004407    1.00   0.00  0.05  0.00  0.95  0.00  0.00  0.00  0.00  0.00
  WS02004405WS02004406    1.00   0.00  0.00  0.00  1.00  0.00  0.00  0.00  0.02  0.00
  WS02004404WS02004405    1.00   0.00  0.00  0.00  1.00  0.00  0.00  0.00  0.00  0.00
  WS02004403WS02004404    1.00   0.00  0.01  0.00  0.99  0.00  0.00  0.00  0.02  0.00
  WS02004402WS02004403    1.00   0.01  0.00  0.00  0.99  0.00  0.00  0.00  0.00  0.00
  WS02004139WS02001211    1.00   0.00  0.00  0.00  1.00  0.00  0.00  0.00  0.00  0.00
  WS02004138WS02004139    1.00   0.00  0.00  0.00  1.00  0.00  0.00  0.00  1.00  0.00
  WS02003067WS02003066    1.00   0.06  0.00  0.00  0.93  0.00  0.00  0.00  0.00  0.00
  WS02001213WS02003059    1.00   0.00  0.00  0.00  1.00  0.00  0.00  0.00  0.00  0.00
  WS02001212WS02001213    1.00   0.00  0.00  0.00  0.92  0.00  0.08  0.00  0.00  0.00
  WS02001211WS02001212    1.00   0.00  0.00  0.00  1.00  0.00  0.00  0.00  0.00  0.00
  WS02003072WS02003073    1.00   0.00  0.00  0.00  0.00  0.00  0.00  1.00  0.00  0.00
  WS02003069WS02003072    1.00   0.00  0.00  0.00  1.00  0.00  0.00  0.00  0.14  0.00
  WS02003060WS02003069    1.00   0.00  0.00  0.00  0.99  0.01  0.00  0.00  0.11  0.00
  WS02003059WS02003060    1.00   0.00  0.00  0.00  1.00  0.00  0.00  0.00  0.00  0.00
  HS02004901HS02004770    1.00   0.03  0.00  0.00  0.97  0.00  0.00  0.00  0.01  0.00
  HS02004876HS02004881    1.00   0.01  0.00  0.00  0.96  0.03  0.00  0.00  0.00  0.00
  HS02004870HS02004876    1.00   0.00  0.00  0.00  1.00  0.00  0.00  0.00  0.95  0.00
  HS02004842HS02004848    1.00   0.00  0.03  0.00  0.97  0.00  0.00  0.00  0.63  0.00
  HS02004837HS02004842    1.00   0.00  0.00  0.00  1.00  0.00  0.00  0.00  0.11  0.00
  HS02004830HS02004837    1.00   0.00  0.00  0.00  1.00  0.00  0.00  0.00  0.99  0.00
  HS02004824HS02004830    1.00   0.00  0.00  0.00  1.00  0.00  0.00  0.00  0.00  0.00
  HS02004817HS02004824    1.00   0.00  0.00  0.00  1.00  0.00  0.00  0.00  1.00  0.00
  HS02004770HS02004777    1.00   0.00  0.03  0.00  0.97  0.00  0.00  0.00  0.05  0.00
  HS02004799HS02004480    1.00   0.00  0.01  0.00  0.96  0.00  0.03  0.00  0.00  0.00
  HS02004792HS02004799    1.00   0.00  0.00  0.00  1.00  0.00  0.00  0.00  0.98  0.00
  HS02004788HS02004792    1.00   0.00  0.00  0.00  1.00  0.00  0.00  0.00  0.98  0.00
  HS02004785HS02004788    1.00   0.00  0.00  0.00  1.00  0.00  0.00  0.00  0.00  0.00
  HS02004777HS02004785    1.00   0.00  0.00  0.00  1.00  0.00  0.00  0.00  0.17  0.00
  HS02004480HS02004478    1.00   0.03  0.00  0.00  0.77  0.00  0.00  0.20  0.00  0.00
  HS02004479HS02004480    1.00   0.01  0.00  0.00  0.99  0.00  0.00  0.00  0.14  0.00
  HS02004862HS02004870    1.00   0.00  0.00  0.00  1.00  0.00  0.00  0.00  0.05  0.00
  HS02004848HS02004852    1.00   0.03  0.00  0.00  0.97  0.00  0.00  0.00  0.72  0.00
  HS02004856HS02004862    1.00   0.00  0.05  0.00  0.95  0.00  0.00  0.00  0.78  0.00
  HS02004852HS02004856    1.00   0.03  0.01  0.00  0.96  0.00  0.00  0.00  0.83  0.00
  HS02004802HS02004478    1.00   0.03  0.00  0.00  0.96  0.00  0.00  0.00  0.02  0.00
  HS02004478WS02006287    1.00   0.04  0.00  0.00  0.86  0.10  0.00  0.00  0.72  0.00
  HS02004817HS02004807    1.00   0.00  0.03  0.00  0.97  0.00  0.00  0.00  0.00  0.00
  HS02004807HS02004802    1.00   0.03  0.00  0.00  0.97  0.00  0.00  0.00  0.01  0.00
  YS02001759YS02001757    1.00   0.00  0.00  0.00  1.00  0.00  0.00  0.00  0.18  0.00
  YS02001762YS02001759    1.00   0.00  0.00  0.00  1.00  0.00  0.00  0.00  0.04  0.00
  YS02001765YS02001762    1.00   0.00  0.00  0.00  1.00  0.00  0.00  0.00  0.19  0.00
  YS02001770YS02001767    1.00   0.00  0.00  0.00  1.00  0.00  0.00  0.00  0.00  0.00
  YS02001774YS02001770    1.00   0.00  0.04  0.00  0.96  0.00  0.00  0.00  0.05  0.00
  YS02001779YS02001774    1.00   0.00  0.00  0.00  1.00  0.00  0.00  0.00  0.23  0.00
  YS02001649YS02001757    1.00   0.00  0.00  0.00  1.00  0.00  0.00  0.00  0.18  0.00
  YS02001767YS02001765    1.00   0.00  0.00  0.00  1.00  0.00  0.00  0.00  0.00  0.00
  YS02006561YS02001783    1.00   0.05  0.00  0.00  0.10  0.85  0.00  0.00  0.59  0.00
  YS02001783YS02001784    1.00   0.00  0.05  0.00  0.95  0.00  0.00  0.00  0.01  0.00
  YS02001784YS02001785    1.00   0.00  0.00  0.00  1.00  0.00  0.00  0.00  0.22  0.00
  YS02001788YS02001790    1.00   0.00  0.00  0.00  0.23  0.77  0.00  0.00  0.60  0.00
  YS02001790YS02001791    1.00   0.00  0.00  0.00  0.19  0.81  0.00  0.00  0.57  0.00
  YS02001791YS02001793    1.00   0.00  0.00  0.00  0.23  0.77  0.00  0.00  0.04  0.00
  YS02001910YS02001907    1.00   0.00  0.00  0.00  0.99  0.00  0.00  0.01  0.13  0.00
  YS02001786YS02001788    1.00   0.00  0.00  0.00  0.20  0.80  0.00  0.00  0.00  0.00
  YS02001915YS02001910    1.00   0.00  0.00  0.00  1.00  0.00  0.00  0.00  0.21  0.00
  YS02001918YS02001915    1.00   0.00  0.00  0.00  0.99  0.00  0.00  0.00  0.64  0.00
  YS02001923YS02001920    1.00   0.00  0.00  0.00  1.00  0.00  0.00  0.00  1.00  0.00
  YS02001926YS02001923    1.00   0.00  0.02  0.00  0.00  0.00  0.98  0.00  0.00  0.00
  YS02001929YS02001926    1.00   0.00  0.03  0.00  0.97  0.00  0.00  0.00  0.87  0.00
  YS02001920YS02001918    1.00   0.00  0.00  0.00  1.00  0.00  0.00  0.00  0.00  0.00
  YS02001629YS02163301    1.00   0.04  0.00  0.00  0.95  0.00  0.00  0.00  0.00  0.00
  YS02001619YS02001622    1.00   0.03  0.00  0.00  0.97  0.00  0.00  0.00  0.00  0.00
  YS02001622YS02001625    1.00   0.03  0.00  0.00  0.97  0.00  0.00  0.00  0.10  0.00
  YS02001625YS02001629    1.00   0.03  0.02  0.00  0.93  0.00  0.01  0.00  0.00  0.00
  YS02163301YS02001633    1.00   0.00  0.04  0.00  0.96  0.00  0.00  0.00  0.00  0.00
  YS02163601YS02164001    1.00   0.00  0.02  0.00  0.98  0.00  0.00  0.00  0.00  0.00
  YS02164001YS02001641    1.00   0.00  0.02  0.00  0.98  0.00  0.00  0.00  0.07  0.00
  YS02001641YS02001644    1.00   0.00  0.00  0.00  1.00  0.00  0.00  0.00  0.00  0.00
  YS02001647YS02001649    1.00   0.00  0.05  0.00  0.95  0.00  0.00  0.00  0.01  0.00
  YS02006553YS02006556    1.00   0.00  0.00  0.00  1.00  0.00  0.00  0.00  0.03  0.00
  YS02006556YS02006558    1.00   0.00  0.00  0.00  1.00  0.00  0.00  0.00  0.00  0.00
  YSB6556YSB1171          1.00   0.01  0.02  0.00  0.97  0.00  0.00  0.00  0.00  0.00
  YS02001907YS02006553    1.00   0.00  0.01  0.00  0.99  0.00  0.00  0.00  0.00  0.00
  YS02006558YS02006561    1.00   0.05  0.00  0.00  0.00  0.95  0.00  0.00  0.56  0.00
  YS02001633YS02163601    1.00   0.00  0.00  0.00  1.00  0.00  0.00  0.00  0.18  0.00
  YS02001644YS02001647    1.00   0.00  0.05  0.00  0.95  0.00  0.00  0.00  0.00  0.00
  YS02001745YS02001748    1.00   0.00  0.00  0.00  0.92  0.00  0.00  0.08  0.03  0.00
  YS02001748YS02001751    1.00   0.00  0.00  0.00  0.97  0.03  0.00  0.00  0.16  0.00
  YS02001751YS02001754    1.00   0.00  0.00  0.00  0.94  0.00  0.00  0.06  0.02  0.00
  YS02001754YS02001757    1.00   0.00  0.00  0.00  1.00  0.00  0.00  0.00  0.23  0.00
  YS02001882YS02001884    1.00   0.04  0.00  0.00  0.96  0.00  0.00  0.00  0.00  0.00
  YS02001884YS02001887    1.00   0.01  0.01  0.00  0.97  0.00  0.00  0.00  0.00  0.00
  YS02001890YS02001895    1.00   0.00  0.04  0.00  0.95  0.00  0.00  0.00  0.00  0.00
  YS02001895YS02001898    1.00   0.05  0.00  0.00  0.94  0.00  0.01  0.00  0.00  0.00
  YS02001898YS02001901    1.00   0.05  0.00  0.00  0.95  0.00  0.00  0.00  0.02  0.00
  YS02001901YS02001904    1.00   0.04  0.00  0.00  0.96  0.00  0.00  0.00  0.00  0.00
  YS02001904YS02001907    1.00   0.00  0.04  0.00  0.96  0.00  0.00  0.00  0.00  0.00
  YS02001887YS02001890    1.00   0.00  0.00  0.00  0.99  0.00  0.01  0.00  0.00  0.00
  YS02001652YS02001649    1.00   0.00  0.00  0.00  1.00  0.00  0.00  0.00  0.21  0.00
  YS02001655YS02001652    1.00   0.00  0.00  0.00  0.94  0.00  0.00  0.06  0.02  0.00
  YS02001658YS02001655    1.00   0.00  0.04  0.00  0.93  0.03  0.00  0.00  0.07  0.00
  YS02001661YS02001658    1.00   0.04  0.00  0.00  0.92  0.04  0.00  0.00  0.03  0.00
  YS02001664YS02001661    1.00   0.03  0.00  0.00  0.93  0.04  0.00  0.00  0.23  0.00
  YSB1154YSB6556          1.00   0.03  0.00  0.00  0.97  0.00  0.00  0.00  0.02  0.00
  YSB1174YSB1171          1.00   0.01  0.01  0.00  0.98  0.00  0.00  0.00  0.00  0.00
  YSB1171HS02004479       1.00   0.01  0.00  0.00  0.99  0.00  0.00  0.00  0.12  0.00
  HS02004881HS02006253    1.00   0.01  0.00  0.00  0.72  0.00  0.00  0.26  0.52  0.00
  YS02001793JiankangQianchi    1.00   0.00  0.00  0.00  0.61  0.39  0.00  0.00  0.51  0.00
  YS02001757CaochengTiaoxuchi    1.00   0.00  0.07  0.00  0.93  0.01  0.00  0.00  0.00  0.00
  WSF200WS02003060        1.00   0.00  0.01  0.00  0.99  0.00  0.00  0.00  0.44  0.00
  1                       1.00   0.00  0.00  0.00  0.00  1.00  0.00  0.00  0.59  0.00
  
  
  *************************
  Conduit Surcharge Summary
  *************************
  
  ----------------------------------------------------------------------------
                                                           Hours        Hours 
                         --------- Hours Full --------   Above Full   Capacity
  Conduit                Both Ends  Upstream  Dnstream   Normal Flow   Limited
  ----------------------------------------------------------------------------
  WS02006229WS02006228        3.31      3.39      3.31      4.30         3.31
  WS02006256WS02006235        5.42      5.43      6.31      3.61         0.01
  WS02006253WS02006251        0.82      0.82      0.91      0.01         0.01
  WS02006252WS02006251        0.90      0.90      1.46      1.30         0.01
  WS02006251WS02006249        0.82      0.84      0.88      0.74         0.37
  WS02006249WS02006248        0.79      0.79      0.88      3.82         0.01
  WS02006248WS02006247        0.85      0.85      1.02      0.01         0.01
  WS02006247WS02006245        0.97      1.09      0.97      4.10         0.96
  WS02006245WS02006243        1.01      1.03      1.08      0.53         0.27
  WS02006243WS02006242        1.15      1.15      2.41      0.01         0.01
  WS02006242WS02006240        2.10      2.10      2.58      1.44         0.01
  WS02006240WS02006239        2.15      2.17      2.24      0.80         0.38
  WS02006239WS02006238        2.54      2.62      2.77      0.84         0.48
  WS02006238WS02006235        2.73      2.73      3.00      0.01         0.01
  WS02006235WS02006234        2.33      2.33      2.65      5.31         0.01
  WS02006234WS02006232        2.52      2.52      3.16      0.40         0.39
  WS02006232WS02006231        0.61      0.61      3.16      0.49         0.01
  WS02006231WS02006230        0.30      0.30      0.68      5.49         0.01
  WS02006230WS02006229        3.86      4.11      3.86      5.73         3.86
  WS02006228WS02006109        3.34      3.66      3.34      5.04         3.34
  WS02006112WS02006115        0.01      0.01      1.01      0.01         0.01
  WS02006111WS02006112        0.01      0.01      4.39      0.01         0.01
  WS02006110WS02006113        0.01      0.01      3.51      0.01         0.01
  WS02006109WS02006110        0.71      0.71      3.66      0.72         0.01
  WS02004405WS02004406        0.01      0.01      0.01      0.84         0.01
  WS02004404WS02004405        0.01      0.01      0.01      5.82         0.01
  WS02003072WS02003073        0.01      0.01      0.01      5.60         0.01
  HS02004480HS02004478        0.01      0.01      0.01      0.26         0.01
  YS02001759YS02001757        5.64      5.64      5.67      0.01         0.01
  YS02001762YS02001759        5.63      5.63      5.64      0.01         0.01
  YS02001765YS02001762        5.61      5.61      5.63      0.01         0.01
  YS02001770YS02001767        5.60      5.60      5.60      0.01         0.73
  YS02001774YS02001770        5.59      5.59      5.62      0.01         0.01
  YS02001779YS02001774        5.44      5.44      5.62      0.01         0.01
  YS02001649YS02001757        5.63      5.63      5.67      0.01         0.01
  YS02001767YS02001765        5.60      5.60      5.61      0.01         0.01
  YS02006561YS02001783        0.01      0.01      0.02      0.01         0.01
  YS02001783YS02001784        0.02      0.02      0.05      0.01         0.01
  YS02001784YS02001785        0.01      0.05      0.01      1.33         0.01
  YS02001788YS02001790        0.01      0.01      0.53      0.01         0.01
  YS02001790YS02001791        0.53      0.53      0.72      0.01         0.01
  YS02001791YS02001793        0.72      0.72      1.20      0.01         0.01
  YS02001910YS02001907        0.01      0.01      0.82      0.01         0.01
  YS02001786YS02001788        0.01      0.01      0.01      0.99         0.01
  YS02001629YS02163301        5.59      5.59      5.59      0.01         0.01
  YS02001619YS02001622        5.16      5.16      5.23      0.01         0.02
  YS02001622YS02001625        5.23      5.23      5.58      0.01         0.01
  YS02001625YS02001629        5.19      5.19      5.58      0.01         0.01
  YS02163301YS02001633        5.59      5.59      5.61      0.01         0.01
  YS02163601YS02164001        5.61      5.61      5.63      0.01         0.01
  YS02164001YS02001641        5.61      5.61      5.61      0.01         0.02
  YS02001641YS02001644        5.61      5.61      5.61      0.05         0.99
  YS02001647YS02001649        5.52      5.52      5.63      0.01         0.01
  YS02006553YS02006556        0.01      0.01      0.92      0.01         0.01
  YS02006556YS02006558        0.24      0.24      0.97      0.01         0.01
  YS02001907YS02006553        1.36      1.36      1.53      0.01         0.01
  YS02006558YS02006561        0.01      0.01      0.01      1.23         0.01
  YS02001633YS02163601        5.60      5.60      5.63      0.01         0.01
  YS02001644YS02001647        5.52      5.52      5.61      0.01         0.01
  YS02001745YS02001748        0.01      0.01      4.77      0.01         0.01
  YS02001748YS02001751        4.96      4.96      5.18      0.01         0.01
  YS02001751YS02001754        5.18      5.18      5.44      0.01         0.01
  YS02001754YS02001757        5.48      5.48      5.67      0.01         0.01
  YS02001904YS02001907        0.01      0.01      0.93      0.01         0.01
  YS02001652YS02001649        5.54      5.54      5.63      0.01         0.01
  YS02001655YS02001652        5.22      5.22      5.47      0.01         0.01
  YS02001658YS02001655        4.85      4.85      5.22      0.01         0.01
  YS02001661YS02001658        0.13      0.13      4.85      0.01         0.01
  YS02001664YS02001661        0.01      0.01      0.72      0.01         0.01
  HS02004881HS02006253        0.01      0.01      0.31      0.01         0.01
  YS02001793JiankangQianchi        1.09      1.09      3.27      0.01         0.01
  YS02001757CaochengTiaoxuchi        4.91      4.91      5.67      0.01         0.01
  
  
  ***************
  Pumping Summary
  ***************
  
  ---------------------------------------------------------------------------------------------------------
                                                  Min       Avg       Max     Total     Power    % Time Off
                        Percent   Number of      Flow      Flow      Flow    Volume     Usage    Pump Curve
  Pump                 Utilized   Start-Ups       LPS       LPS       LPS  10^6 ltr     Kw-hr    Low   High
  ---------------------------------------------------------------------------------------------------------
  CC-Pump-1               59.57           1      0.00    179.90    200.00     2.940      2.87    0.0    0.0
  CC-Pump-2               25.52           5      0.00    105.12    200.00     0.900      1.32    0.0    0.0
  JK-Pump-1               53.20           5      0.00    197.57    300.00     2.798     49.37    0.0    0.0
  JK-Pump-2               44.69           5      0.00    295.45    683.00     3.662     63.77    0.0   96.0
  XR-Pump-1               95.74           3      0.00     93.63     95.00     2.451     37.96    0.0    0.0
  XR-Pump-2               95.74           3      0.00     93.63     95.00     2.451     37.96    0.0    0.0
  XR-Pump-3               95.74           3      0.00     93.19     95.00     2.394     36.65    0.0    0.0
  XR-Pump-4               95.74           3      0.00     93.19     95.00     2.394     36.65    0.0    0.0
  
  
  ***************************
  Link Pollutant Load Summary
  ***************************
  
  ------------------------------------------------------------------------------------------
                                 COD            SS            TN            TP         NH4-N
  Link                            kg            kg            kg            kg            kg
  ------------------------------------------------------------------------------------------
  WS02003066WSF200           576.399      1030.168        16.931         1.554         9.132
  WS02006287WS02006284       174.868       317.594         7.543         0.816         4.360
  WS02006284WS02006280       175.287       318.272         7.582         0.821         4.385
  WS02006280WS02006229       175.266       318.227         7.582         0.821         4.385
  WS02006229WS02006228       588.306      1050.658        16.822         1.518         9.014
  WS02006256WS02006235       120.389       211.484         3.021         0.252         1.577
  WS02006253WS02006251        32.319        61.006         0.819         0.067         0.423
  WS02006252WS02006251       283.484       499.990         5.899         0.414         2.875
  WS02006251WS02006249       308.278       547.874         6.579         0.473         3.233
  WS02006249WS02006248       303.962       540.303         6.482         0.465         3.184
  WS02006248WS02006247       303.555       539.645         6.474         0.465         3.181
  WS02006247WS02006245       302.818       538.376         6.457         0.464         3.173
  WS02006245WS02006243       301.840       536.794         6.430         0.461         3.158
  WS02006243WS02006242       301.280       535.907         6.420         0.461         3.153
  WS02006242WS02006240       300.136       533.961         6.393         0.459         3.140
  WS02006240WS02006239       299.347       532.667         6.372         0.457         3.129
  WS02006239WS02006238       299.504       532.951         6.386         0.459         3.138
  WS02006238WS02006235       299.310       532.472         6.389         0.460         3.141
  WS02006235WS02006234       417.921       740.832         9.357         0.707         4.688
  WS02006234WS02006232       417.090       739.398         9.343         0.706         4.682
  WS02006232WS02006231       416.010       737.528         9.315         0.704         4.668
  WS02006231WS02006230       415.185       736.110         9.302         0.703         4.662
  WS02006230WS02006229       415.625       737.110         9.324         0.706         4.675
  WS02006228WS02006109       587.214      1048.787        16.799         1.517         9.003
  WS02006116WS02004401       592.268      1057.377        17.445         1.602         9.414
  WS02006115WS02006116       593.873      1060.114        17.497         1.607         9.442
  WS02006113WS02006111       592.337      1056.609        17.512         1.610         9.457
  WS02006112WS02006115       595.488      1062.893        17.558         1.613         9.477
  WS02006111WS02006112       591.692      1055.475        17.500         1.609         9.451
  WS02006110WS02006113       593.210      1058.116        17.544         1.613         9.475
  WS02006109WS02006110       594.771      1060.802        17.601         1.618         9.507
  WS02004411WS02004412       580.340      1036.917        17.082         1.569         9.218
  WS02004401WS02004402       590.607      1054.536        17.379         1.595         9.376
  WS02004413WS02003067       577.168      1031.488        16.951         1.555         9.142
  WS02004412WS02004413       578.872      1034.393        17.035         1.565         9.192
  WS02004410WS02004411       581.508      1038.918        17.119         1.573         9.238
  WS02004409WS02004410       582.691      1040.944        17.161         1.577         9.261
  WS02004407WS02004409       583.711      1042.683        17.192         1.580         9.278
  WS02004406WS02004407       584.072      1043.279        17.198         1.580         9.280
  WS02004405WS02004406       586.291      1047.032        17.304         1.591         9.342
  WS02004404WS02004405       587.797      1049.630        17.330         1.593         9.354
  WS02004403WS02004404       587.641      1049.480        17.262         1.583         9.309
  WS02004402WS02004403       589.051      1051.889        17.321         1.590         9.343
  WS02004139WS02001211      1433.823      2317.514       128.834        15.947        80.055
  WS02004138WS02004139      1431.909      2314.451       128.651        15.924        79.941
  WS02003067WS02003066       576.582      1030.481        16.939         1.555         9.136
  WS02001213WS02003059      1484.470      2398.548       133.695        16.555        83.094
  WS02001212WS02001213      1484.487      2398.574       133.699        16.555        83.096
  WS02001211WS02001212      1485.034      2399.450       133.750        16.561        83.128
  WS02003072WS02003073      2175.591      3612.028       161.776        19.504        99.199
  WS02003069WS02003072      2177.926      3615.838       161.967        19.528        99.318
  WS02003060WS02003069      2177.078      3614.553       161.847        19.512        99.241
  WS02003059WS02003060      1486.799      2402.274       133.920        16.583        83.234
  HS02004901HS02004770         5.796        10.984         0.109         0.008         0.051
  HS02004876HS02004881        21.544        41.444         0.526         0.041         0.267
  HS02004870HS02004876        16.331        31.271         0.437         0.036         0.225
  HS02004842HS02004848         2.945         5.415         0.063         0.004         0.029
  HS02004837HS02004842         7.550        12.734         0.531         0.063         0.323
  HS02004830HS02004837        55.764        93.407         4.366         0.533         2.694
  HS02004824HS02004830        56.515        94.610         4.438         0.542         2.738
  HS02004817HS02004824        68.506       117.670         4.708         0.560         2.873
  HS02004770HS02004777        22.010        42.072         0.459         0.031         0.210
  HS02004799HS02004480        79.773       146.627         2.660         0.262         1.456
  HS02004792HS02004799        72.834       132.656         2.579         0.261         1.426
  HS02004788HS02004792        44.007        79.859         1.887         0.200         1.076
  HS02004785HS02004788        23.510        44.485         0.611         0.050         0.306
  HS02004777HS02004785        22.946        43.570         0.561         0.044         0.275
  HS02004480HS02004478        99.556       185.293         2.954         0.281         1.588
  HS02004479HS02004480        23.958        45.311         0.690         0.068         0.379
  HS02004862HS02004870        12.144        22.796         0.354         0.031         0.186
  HS02004848HS02004852         4.219         7.876         0.088         0.006         0.040
  HS02004856HS02004862         7.714        14.877         0.155         0.010         0.073
  HS02004852HS02004856         4.214         7.867         0.088         0.006         0.040
  HS02004802HS02004478        75.644       132.862         4.616         0.538         2.789
  HS02004478WS02006287       175.056       317.917         7.557         0.817         4.369
  HS02004817HS02004807        67.150       115.498         4.580         0.544         2.793
  HS02004807HS02004802        76.246       133.819         4.675         0.545         2.826
  YS02001759YS02001757       231.461       408.824         4.852         0.335         2.387
  YS02001762YS02001759       117.577       209.137         2.670         0.189         1.336
  YS02001765YS02001762       116.838       207.759         2.677         0.191         1.343
  YS02001770YS02001767       114.374       203.771         2.374         0.151         1.150
  YS02001774YS02001770        10.469        18.592         0.223         0.015         0.109
  YS02001779YS02001774         9.293        16.253         0.305         0.028         0.168
  YS02001649YS02001757       225.821       389.453         4.613         0.327         2.210
  YS02001767YS02001765       116.729       207.519         2.687         0.192         1.349
  YS02006561YS02001783       478.148       838.590        11.264         0.896         5.771
  YS02001783YS02001784       478.070       838.475        11.260         0.895         5.769
  YS02001784YS02001785       485.418       850.247        11.974         0.985         6.215
  YS02001788YS02001790       486.048       851.262        12.047         0.994         6.261
  YS02001790YS02001791       487.430       853.481        12.190         1.012         6.351
  YS02001791YS02001793       487.589       853.753        12.194         1.012         6.353
  YS02001910YS02001907       158.712       272.791         4.917         0.430         2.660
  YS02001786YS02001788       485.636       850.605        12.002         0.988         6.233
  YS02001915YS02001910       158.636       272.636         4.867         0.423         2.627
  YS02001918YS02001915        77.267       126.674         3.111         0.325         1.787
  YS02001923YS02001920        57.330        94.819         1.163         0.081         0.569
  YS02001926YS02001923        56.984        94.270         1.125         0.076         0.544
  YS02001929YS02001926        56.742        93.873         1.094         0.072         0.525
  YS02001920YS02001918        77.241       126.681         3.082         0.321         1.768
  YS02001629YS02163301        64.529       110.549         1.385         0.088         0.643
  YS02001619YS02001622        66.949       114.262         1.443         0.091         0.669
  YS02001622YS02001625        65.912       112.666         1.418         0.090         0.657
  YS02001625YS02001629        64.903       111.171         1.394         0.088         0.646
  YS02163301YS02001633        65.718       112.663         1.405         0.090         0.654
  YS02163601YS02164001       178.411       303.890         3.680         0.258         1.763
  YS02164001YS02001641       178.163       303.487         3.662         0.256         1.753
  YS02001641YS02001644       179.241       305.296         3.675         0.257         1.758
  YS02001647YS02001649       192.984       330.897         3.885         0.273         1.861
  YS02006553YS02006556       344.919       602.788         8.455         0.697         4.398
  YS02006556YS02006558       344.909       602.764         8.425         0.693         4.377
  YSB6556YSB1171              13.125        24.998         0.307         0.028         0.162
  YS02001907YS02006553       344.991       602.937         8.457         0.698         4.399
  YS02006558YS02006561       478.164       838.612        11.262         0.895         5.769
  YS02001633YS02163601       179.075       304.899         3.661         0.254         1.748
  YS02001644YS02001647       198.735       340.706         3.987         0.280         1.909
  YS02001745YS02001748        95.232       166.671         2.142         0.141         1.056
  YS02001748YS02001751        94.849       165.913         2.216         0.152         1.106
  YS02001751YS02001754        94.138       164.762         2.219         0.154         1.112
  YS02001754YS02001757        94.998       166.091         2.388         0.177         1.221
  YS02001882YS02001884         2.030         3.456         0.045         0.004         0.023
  YS02001884YS02001887         5.125         8.918         0.109         0.009         0.056
  YS02001890YS02001895       187.575       332.065         3.570         0.269         1.754
  YS02001895YS02001898       187.417       331.835         3.563         0.269         1.751
  YS02001898YS02001901       187.273       331.621         3.560         0.268         1.749
  YS02001901YS02001904       187.272       331.651         3.577         0.271         1.760
  YS02001904YS02001907       187.831       332.580         3.655         0.281         1.810
  YS02001887YS02001890       188.439       333.401         3.631         0.277         1.792
  YS02001652YS02001649        58.654       102.718         1.275         0.093         0.603
  YS02001655YS02001652        59.258       103.722         1.291         0.094         0.610
  YS02001658YS02001655        58.648       102.736         1.202         0.083         0.553
  YS02001661YS02001658        66.821       117.345         1.367         0.094         0.629
  YS02001664YS02001661        85.143       146.998         1.778         0.122         0.816
  YSB1154YSB6556              12.632        24.210         0.247         0.020         0.124
  YSB1174YSB1171               9.007        17.364         0.211         0.019         0.110
  YSB1171HS02004479           23.882        45.197         0.683         0.067         0.375
  HS02004881HS02006253        24.295        46.933         0.570         0.044         0.286
  YS02001793JiankangQianchi       488.610       855.399        12.248         1.018         6.385
  YS02001757CaochengTiaoxuchi       485.461       848.534        10.252         0.719         5.006
  WSF200WS02003060           576.163      1029.748        16.938         1.555         9.137
  1                         2188.807      3633.117       163.104        19.671       100.031
  CC-Pump-1                  220.316       389.341         4.570         0.321         2.226
  CC-Pump-2                   63.197       110.698         1.330         0.093         0.649
  JK-Pump-1                  138.003       242.378         3.476         0.291         1.816
  JK-Pump-2                  199.137       352.959         4.653         0.372         2.385
  XR-Pump-1                  364.426       588.930        32.782         4.058        20.372
  XR-Pump-2                  364.426       588.930        32.782         4.058        20.372
  XR-Pump-3                  351.681       568.537        31.559         3.905        19.608
  XR-Pump-4                  351.681       568.537        31.559         3.905        19.608
  

  Analysis begun on:  Sun Jul 11 15:31:00 2021
  Analysis ended on:  Sun Jul 11 15:31:03 2021
  Total elapsed time: 00:00:03