
  EPA STORM WATER MANAGEMENT MODEL - VERSION 5.1 (Build 5.3.0.dev0)
  --------------------------------------------------------------

  WARNING 04: minimum elevation drop used for Conduit WS02004404WS02004405
  WARNING 03: negative offset ignored for Link YS02001904YS02001907
  
  *********************************************************
  NOTE: The summary statistics displayed in this report are
  based on results found at every computational time step,  
  not just on results from each reporting time step.
  *********************************************************
  
  ****************
  Analysis Options
  ****************
  Flow Units ............... LPS
  Process Models:
    Rainfall/Runoff ........ YES
    RDII ................... NO
    Snowmelt ............... NO
    Groundwater ............ NO
    Flow Routing ........... YES
    Ponding Allowed ........ NO
    Water Quality .......... YES
  Infiltration Method ...... HORTON
  Flow Routing Method ...... DYNWAVE
  Surcharge Method ......... EXTRAN
  Starting Date ............ 08/28/2015 08:00:00
  Ending Date .............. 08/28/2015 15:50:00
  Antecedent Dry Days ...... 8.0
  Report Time Step ......... 00:01:00
  Wet Time Step ............ 00:01:00
  Dry Time Step ............ 00:01:00
  Routing Time Step ........ 5.00 sec
  Variable Time Step ....... YES
  Maximum Trials ........... 8
  Number of Threads ........ 4
  Head Tolerance ........... 0.001500 m
  
  
  **************************        Volume         Depth
  Runoff Quantity Continuity     hectare-m            mm
  **************************     ---------       -------
  Total Precipitation ......         2.592         5.674
  Evaporation Loss .........         0.000         0.000
  Infiltration Loss ........         0.560         1.225
  Surface Runoff ...........         1.501         3.287
  Final Storage ............         0.531         1.164
  Continuity Error (%) .....        -0.022
  
  
  **************************           COD            SS            TN            TP         NH4-N
  Runoff Quality Continuity             kg            kg            kg            kg            kg
  **************************    ----------    ----------    ----------    ----------    ----------
  Initial Buildup ..........     41378.656     70582.865      1804.177       168.684      1032.807
  Surface Buildup ..........        14.789        19.368         2.941         0.271         1.740
  Wet Deposition ...........         0.000         0.000         0.000         0.000         0.000
  Sweeping Removal .........         0.000         0.000         0.000         0.000         0.000
  Infiltration Loss ........        27.095        47.591         0.536         0.036         0.252
  BMP Removal ..............         0.000         0.000         0.000         0.000         0.000
  Surface Runoff ...........       893.458      1522.723        18.103         1.174         8.531
  Remaining Buildup ........     40472.603     69031.432      1788.472       167.745      1025.761
  Continuity Error (%) .....         0.001         0.001         0.000         0.000         0.000
  
  
  **************************        Volume        Volume
  Flow Routing Continuity        hectare-m      10^6 ltr
  **************************     ---------     ---------
  Dry Weather Inflow .......         0.616         6.165
  Wet Weather Inflow .......         1.500        15.004
  Groundwater Inflow .......         0.000         0.000
  RDII Inflow ..............         0.000         0.000
  External Inflow ..........         0.102         1.024
  External Outflow .........         1.597        15.974
  Flooding Loss ............         0.302         3.025
  Evaporation Loss .........         0.000         0.000
  Exfiltration Loss ........         0.000         0.000
  Initial Stored Volume ....         0.076         0.761
  Final Stored Volume ......         0.532         5.324
  Continuity Error (%) .....        -5.965
  
  
  **************************           COD            SS            TN            TP         NH4-N
  Quality Routing Continuity            kg            kg            kg            kg            kg
  **************************    ----------    ----------    ----------    ----------    ----------
  Dry Weather Inflow .......      1541.201      2465.922       147.955        18.494        92.472
  Wet Weather Inflow .......       893.144      1522.228        18.096         1.173         8.528
  Groundwater Inflow .......         0.000         0.000         0.000         0.000         0.000
  RDII Inflow ..............         0.000         0.000         0.000         0.000         0.000
  External Inflow ..........       183.418       293.469        17.608         2.201        11.005
  External Outflow .........      1864.535      3045.265       145.324        17.632        89.424
  Flooding Loss ............       126.398       214.658         3.484         0.303         1.851
  Exfiltration Loss ........         0.000         0.000         0.000         0.000         0.000
  Mass Reacted .............         0.000         0.000         0.000         0.000         0.000
  Initial Stored Mass ......         0.000         0.000         0.000         0.000         0.000
  Final Stored Mass ........       452.252       731.746        26.958         3.088        16.147
  Continuity Error (%) .....         6.669         6.772         4.298         3.868         4.092
  
  
  *************************
  Highest Continuity Errors
  *************************
  Node YS02001774 (38.22%)
  Node JK-storage (-28.54%)
  Node HS02004842 (24.95%)
  Node YS02001884 (19.22%)
  Node YSB1171 (5.76%)
  
  
  ***************************
  Time-Step Critical Elements
  ***************************
  Link WS02006252WS02006251 (70.33%)
  Link WS02006280WS02006229 (8.18%)
  Link YS02001793JiankangQianchi (7.02%)
  Link WS02006238WS02006235 (5.03%)
  Link WS02004404WS02004405 (1.68%)
  
  
  ********************************
  Highest Flow Instability Indexes
  ********************************
  Link WS02006113WS02006111 (46)
  Link WS02006111WS02006112 (28)
  Link YS02001779YS02001774 (27)
  Link YS02001774YS02001770 (24)
  Link YS02001619YS02001622 (23)
  
  
  *************************
  Routing Time Step Summary
  *************************
  Minimum Time Step           :     0.38 sec
  Average Time Step           :     1.17 sec
  Maximum Time Step           :     5.00 sec
  Percent in Steady State     :    -0.00
  Average Iterations per Step :     4.33
  Percent Not Converging      :    25.93
  
  
  ***************************
  Subcatchment Runoff Summary
  ***************************
  
  ------------------------------------------------------------------------------------------------------------------------------
                            Total      Total      Total      Total     Imperv       Perv      Total       Total     Peak  Runoff
                           Precip      Runon       Evap      Infil     Runoff     Runoff     Runoff      Runoff   Runoff   Coeff
  Subcatchment                 mm         mm         mm         mm         mm         mm         mm    10^6 ltr      LPS
  ------------------------------------------------------------------------------------------------------------------------------
  sub0                       5.67       0.00       0.00       0.39       5.23       0.00       5.23        0.00     1.73   0.923
  sub1                       5.67       0.00       0.00       0.62       4.96       0.00       4.96        0.03     9.89   0.875
  sub2                       5.67       0.00       0.00       2.10       3.50       0.00       3.50        0.03     8.85   0.616
  sub3                       5.67       0.00       0.00       2.10       3.46       0.00       3.46        0.08    18.38   0.610
  sub4                       5.67       0.00       0.00       0.62       4.82       0.00       4.82        0.10    20.69   0.850
  sub5                       5.67       0.00       0.00       0.40       5.19       0.00       5.19        0.06    17.59   0.914
  sub7                       5.67       0.00       0.00       0.51       5.10       0.00       5.10        0.02     6.02   0.900
  sub8                       5.67       0.00       0.00       0.51       5.09       0.00       5.10        0.03    10.76   0.898
  sub9                       5.67       0.00       0.00       0.51       5.09       0.00       5.09        0.02     8.00   0.898
  sub10                      5.67       0.00       0.00       0.45       5.14       0.00       5.14        0.06    17.49   0.905
  sub11                      5.67       0.00       0.00       0.45       5.15       0.00       5.15        0.06    20.16   0.908
  sub12                      5.67       0.00       0.00       0.74       4.89       0.00       4.89        0.04    16.39   0.862
  sub14                      5.67       0.00       0.00       0.51       5.09       0.00       5.09        0.05    15.66   0.897
  sub15                      5.67       0.00       0.00       1.70       3.91       0.00       3.91        0.07    21.33   0.690
  sub16                      5.67       0.00       0.00       1.87       3.76       0.00       3.76        0.04    14.58   0.663
  sub17                      5.67       0.00       0.00       1.81       3.82       0.00       3.82        0.03    11.87   0.673
  sub22                      5.67       0.00       0.00       2.44       3.19       0.00       3.19        0.20    68.75   0.563
  sub23                      5.67       0.00       0.00       2.10       3.53       0.00       3.53        0.17    58.33   0.623
  sub60                      5.67       0.00       0.00       0.68       3.61       0.00       3.61        1.09   102.41   0.636
  sub61                      5.67       0.00       0.00       0.96       3.81       0.00       3.81        1.17   129.82   0.671
  sub62                      5.67       0.00       0.00       0.45       4.10       0.00       4.10        1.26   132.27   0.723
  sub63                      5.67       0.00       0.00       1.65       3.38       0.00       3.38        1.02   121.64   0.595
  sub64                      5.67       0.00       0.00       0.85       3.45       0.00       3.45        1.05    97.20   0.609
  sub65                      5.67       0.00       0.00       0.74       3.50       0.00       3.50        1.08    98.57   0.617
  sub66                      5.67       0.00       0.00       1.65       3.00       0.00       3.00        0.92    89.37   0.529
  sub67                      5.67       0.00       0.00       0.45       4.46       0.00       4.46        1.38   171.37   0.785
  sub68                      5.67       0.00       0.00       0.79       4.04       0.00       4.04        1.24   143.89   0.712
  sub69                      5.67       0.00       0.00       0.85       4.31       0.00       4.31        1.01   144.27   0.760
  sub70                      5.67       4.40       0.00       3.42       5.43       0.01       5.44        1.24   116.17   0.540
  sub71                      5.67       0.00       0.00       0.45       3.94       0.00       3.94        0.93    91.98   0.694
  sub72                      5.67       0.00       0.00       0.40       2.87       0.00       2.87        0.58    43.85   0.505
  1                          5.67       5.29       0.00       1.32       5.64       0.91       6.55        1.54   112.41   0.598
  2                          5.67       0.00       0.00       2.91       1.29       0.31       1.60        0.64    88.75   0.283
  
  
  ****************************
  Subcatchment Washoff Summary
  ****************************
  
  ------------------------------------------------------------------------------------------
                                 COD            SS            TN            TP         NH4-N
  Subcatchment                    kg            kg            kg            kg            kg
  ------------------------------------------------------------------------------------------
  sub0                         0.866         1.622         0.014         0.001         0.007
  sub1                         3.482         6.584         0.065         0.004         0.031
  sub2                         1.983         3.604         0.044         0.003         0.020
  sub3                         4.777         8.554         0.105         0.007         0.047
  sub4                         7.570        14.171         0.155         0.009         0.074
  sub5                         8.026        14.991         0.140         0.010         0.068
  sub7                         1.856         3.587         0.035         0.002         0.017
  sub8                         2.793         5.499         0.057         0.003         0.027
  sub9                         2.365         4.594         0.046         0.003         0.022
  sub10                        6.670        12.630         0.121         0.008         0.058
  sub11                        6.645        12.775         0.124         0.008         0.059
  sub12                        5.579        10.564         0.099         0.007         0.048
  sub14                        5.018         9.655         0.095         0.006         0.046
  sub15                        5.865        10.744         0.115         0.008         0.053
  sub16                        3.748         6.883         0.072         0.005         0.033
  sub17                        3.430         6.241         0.064         0.005         0.030
  sub22                       17.298        31.024         0.335         0.025         0.155
  sub23                       10.649        19.830         0.236         0.015         0.107
  sub60                       57.377        96.961         1.222         0.070         0.583
  sub61                       72.906       122.989         1.415         0.092         0.678
  sub62                       76.869       132.026         1.586         0.094         0.758
  sub63                       54.725        91.210         1.180         0.080         0.538
  sub64                       68.250       110.970         1.309         0.091         0.619
  sub65                       69.972       114.266         1.354         0.092         0.642
  sub66                       41.240        67.840         0.922         0.057         0.425
  sub67                      115.821       197.851         2.106         0.149         1.013
  sub68                       82.107       140.286         1.648         0.105         0.782
  sub69                       77.274       134.414         1.497         0.101         0.710
  sub70                      116.645       202.179         2.455         0.163         1.132
  sub71                       50.846        87.985         1.123         0.061         0.535
  sub72                       33.278        53.037         0.656         0.042         0.314
  1                           62.034       108.379         1.352         0.090         0.614
  2                            9.413        15.370         0.307         0.018         0.128
  ------------------------------------------------------------------------------------------
  System                    1087.377      1859.316        22.055         1.437        10.374
  
  
  ******************
  Node Depth Summary
  ******************
  
  ---------------------------------------------------------------------------------
                                 Average  Maximum  Maximum  Time of Max    Reported
                                   Depth    Depth      HGL   Occurrence   Max Depth
  Node                 Type       Meters   Meters   Meters  days hr:min      Meters
  ---------------------------------------------------------------------------------
  WS02001211           JUNCTION     0.66     0.79     5.63     0  05:10        0.79
  WS02001212           JUNCTION     0.39     0.51     5.57     0  05:09        0.51
  WS02001213           JUNCTION     0.64     0.76     5.52     0  05:09        0.76
  WS02003069           JUNCTION     0.45     0.59     5.17     0  05:08        0.59
  WS02003072           JUNCTION     0.52     0.64     5.02     0  05:08        0.64
  WS02003073           JUNCTION     0.31     0.40     4.46     0  05:09        0.40
  WS02003060           JUNCTION     0.40     0.52     5.45     0  05:07        0.52
  WS02003066           JUNCTION     0.24     0.30     5.85     0  05:03        0.30
  WS02003059           JUNCTION     0.70     0.81     5.50     0  05:08        0.81
  WS02003067           JUNCTION     0.58     0.70     6.02     0  05:03        0.70
  WS02004401           JUNCTION     0.69     0.86     6.86     0  05:02        0.86
  WS02004402           JUNCTION     0.72     0.88     6.84     0  05:02        0.88
  WS02004403           JUNCTION     0.74     0.90     6.83     0  05:01        0.90
  WS02004404           JUNCTION     0.82     0.97     6.82     0  05:01        0.97
  WS02004406           JUNCTION     0.82     0.96     6.79     0  04:58        0.96
  WS02004409           JUNCTION     0.51     0.67     6.44     0  05:03        0.67
  WS02004410           JUNCTION     0.53     0.69     6.41     0  05:04        0.69
  WS02004411           JUNCTION     0.54     0.70     6.38     0  05:04        0.70
  WS02004412           JUNCTION     0.55     0.70     6.34     0  05:04        0.70
  WS02004413           JUNCTION     0.71     0.86     6.33     0  05:05        0.86
  WS02004405           JUNCTION     0.81     0.96     6.81     0  05:01        0.96
  WS02006109           JUNCTION     0.77     1.00     7.62     0  03:43        0.99
  WS02006110           JUNCTION     0.76     0.94     7.53     0  03:43        0.94
  WS02006111           JUNCTION     0.23     0.29     7.00     0  03:44        0.29
  WS02006112           JUNCTION     0.86     1.07     6.96     0  05:08        1.06
  WS02006113           JUNCTION     0.35     0.46     7.36     0  03:44        0.46
  WS02006115           JUNCTION     0.58     0.76     6.90     0  05:01        0.76
  WS02006116           JUNCTION     0.66     0.84     6.88     0  05:02        0.84
  WS02006230           JUNCTION     0.76     1.17     7.91     0  06:20        1.13
  WS02006231           JUNCTION     0.51     0.92     8.04     0  06:20        0.87
  WS02006232           JUNCTION     0.66     1.12     8.16     0  06:20        1.07
  WS02006234           JUNCTION     0.59     1.15     8.31     0  06:20        1.08
  WS02006235           JUNCTION     0.63     1.26     8.42     0  06:20        1.16
  WS02006238           JUNCTION     0.66     1.29     8.44     0  06:20        1.19
  WS02006240           JUNCTION     0.57     1.25     8.54     0  06:20        1.13
  WS02006242           JUNCTION     0.63     1.32     8.59     0  06:20        1.22
  WS02006243           JUNCTION     0.52     1.21     8.63     0  06:20        1.13
  WS02006245           JUNCTION     0.50     1.17     8.66     0  06:20        1.11
  WS02006247           JUNCTION     0.52     1.17     8.67     0  06:20        1.13
  WS02006248           JUNCTION     0.46     1.10     8.68     0  06:20        1.07
  WS02006249           JUNCTION     0.49     1.09     8.69     0  03:43        1.09
  WS02006239           JUNCTION     0.62     1.29     8.50     0  06:20        1.17
  WS02006251           JUNCTION     0.48     1.26     8.93     0  04:29        1.24
  WS02006252           JUNCTION     0.35     0.81     9.05     0  04:29        0.79
  WS02006253           JUNCTION     0.50     1.31     8.96     0  04:29        1.29
  WS02006256           JUNCTION     1.38     2.35     9.28     0  00:00        2.35
  WS02004138           JUNCTION     0.14     0.20     7.45     0  00:00        0.19
  WS02004139           JUNCTION     0.60     0.74     5.65     0  05:10        0.74
  WS02004407           JUNCTION     0.23     0.30     6.61     0  04:58        0.30
  WS02006228           JUNCTION     0.77     1.05     7.70     0  03:43        1.04
  WS02006229           JUNCTION     0.75     1.04     7.74     0  03:43        1.04
  WS02006280           JUNCTION     0.05     0.16     8.44     0  02:12        0.16
  WS02006284           JUNCTION     0.34     0.51     8.91     0  02:12        0.51
  WS02006287           JUNCTION     0.07     0.24     9.20     0  02:12        0.24
  WSF200               JUNCTION     0.22     0.31     5.54     0  06:37        0.31
  HS02004901           JUNCTION     0.10     0.25    10.08     0  02:10        0.25
  HS02004881           JUNCTION     0.00     0.03     9.06     0  02:11        0.03
  HS02004876           JUNCTION     0.03     0.11     9.14     0  02:08        0.11
  HS02004870           JUNCTION     0.01     0.05     9.34     0  02:12        0.05
  HS02004862           JUNCTION     0.01     0.06     9.44     0  02:13        0.06
  HS02004856           JUNCTION     0.07     0.11     9.54     0  02:13        0.11
  HS02004852           JUNCTION     0.01     0.03     9.55     0  02:13        0.03
  HS02004848           JUNCTION     0.01     0.03     9.63     0  02:12        0.03
  HS02004842           JUNCTION     0.33     0.36     9.63     0  02:11        0.36
  HS02004837           JUNCTION     0.02     0.05     9.63     0  02:12        0.05
  HS02004830           JUNCTION     0.03     0.07     9.54     0  02:12        0.07
  HS02004824           JUNCTION     0.02     0.05     9.45     0  02:14        0.05
  HS02004817           JUNCTION     0.42     0.55     9.40     0  02:13        0.55
  HS02004807           JUNCTION     0.11     0.23     9.40     0  02:13        0.23
  HS02004802           JUNCTION     0.14     0.26     9.39     0  02:12        0.26
  HS02004799           JUNCTION     0.09     0.29     9.50     0  02:11        0.29
  HS02004792           JUNCTION     0.02     0.12     9.64     0  02:10        0.12
  HS02004788           JUNCTION     0.02     0.09     9.98     0  02:11        0.09
  HS02004785           JUNCTION     0.03     0.15    10.05     0  02:10        0.15
  HS02004777           JUNCTION     0.13     0.27    10.07     0  02:10        0.27
  HS02004770           JUNCTION     0.10     0.25    10.08     0  02:10        0.25
  HS02004480           JUNCTION     0.06     0.23     9.47     0  02:11        0.23
  HS02004479           JUNCTION     0.09     0.27     9.47     0  02:11        0.27
  HS02004478           JUNCTION     0.05     0.15     9.38     0  02:12        0.15
  YS02001745           JUNCTION     0.54     0.81     8.32     0  04:28        0.80
  YS02001748           JUNCTION     0.94     1.24     8.31     0  04:28        1.23
  YS02001751           JUNCTION     1.12     1.43     8.31     0  04:44        1.43
  YS02001754           JUNCTION     1.37     1.71     8.32     0  04:27        1.71
  YS02001762           JUNCTION     1.57     1.95     8.35     0  04:29        1.93
  YS02001765           JUNCTION     1.52     1.91     8.36     0  04:29        1.89
  YS02001767           JUNCTION     1.49     1.88     8.36     0  04:29        1.86
  YS02001770           JUNCTION     1.48     1.89     8.38     0  04:29        1.86
  YS02001774           JUNCTION     1.55     1.96     8.38     0  04:29        1.94
  YS02001779           JUNCTION     1.30     1.68     8.37     0  04:29        1.68
  YS02001882           JUNCTION     0.29     0.54     7.26     0  02:39        0.54
  YS02001884           JUNCTION     0.38     0.64     7.26     0  02:39        0.64
  YS02001759           JUNCTION     1.60     1.97     8.34     0  04:27        1.96
  YS02001887           JUNCTION     0.46     0.72     7.26     0  02:39        0.72
  YS02001890           JUNCTION     0.49     0.75     7.25     0  02:38        0.75
  YS02001898           JUNCTION     0.26     0.50     7.24     0  02:37        0.50
  YS02001901           JUNCTION     0.38     0.63     7.24     0  02:40        0.63
  YS02001904           JUNCTION     0.36     0.60     7.23     0  02:38        0.60
  YS02001907           JUNCTION     0.69     0.95     7.24     0  02:40        0.95
  YS02001910           JUNCTION     0.48     0.73     7.24     0  02:40        0.73
  YS02001915           JUNCTION     0.28     0.52     7.23     0  02:40        0.52
  YS02001918           JUNCTION     0.09     0.17     7.23     0  02:39        0.17
  YS02001619           JUNCTION     1.08     1.50     8.43     0  05:51        1.50
  YS02001629           JUNCTION     1.43     1.85     8.40     0  03:42        1.85
  YS02001641           JUNCTION     1.54     1.94     8.38     0  04:02        1.90
  YS02001644           JUNCTION     1.54     1.92     8.35     0  04:02        1.91
  YS02001652           JUNCTION     1.38     1.77     8.36     0  04:27        1.74
  YS02001655           JUNCTION     1.15     1.59     8.44     0  03:46        1.50
  YS02001920           JUNCTION     0.18     0.25     7.25     0  02:43        0.25
  YS02001923           JUNCTION     0.07     0.10     7.36     0  03:01        0.10
  YS02001926           JUNCTION     0.15     0.20     7.64     0  03:01        0.20
  YS02001929           JUNCTION     0.07     0.10     7.79     0  03:01        0.10
  YS02001658           JUNCTION     0.88     1.45     8.59     0  03:46        1.25
  YS02001661           JUNCTION     0.65     0.99     8.40     0  04:22        0.97
  YS02001664           JUNCTION     0.20     0.49     8.41     0  04:21        0.48
  YS02001622           JUNCTION     1.10     1.52     8.42     0  05:51        1.51
  YS02001633           JUNCTION     1.52     1.95     8.41     0  04:02        1.92
  YS02001649           JUNCTION     1.58     1.96     8.35     0  04:27        1.94
  YS02001757           JUNCTION     1.70     2.07     8.33     0  04:27        2.06
  YS02001895           JUNCTION     0.26     0.50     7.25     0  02:40        0.50
  YS02001625           JUNCTION     1.38     1.78     8.38     0  03:42        1.78
  YS02163301           JUNCTION     1.46     1.89     8.41     0  04:02        1.87
  YS02163601           JUNCTION     1.58     2.00     8.40     0  04:02        1.96
  YS02164001           JUNCTION     1.52     1.94     8.39     0  04:02        1.89
  YS02001647           JUNCTION     1.37     1.74     8.35     0  04:27        1.73
  YSB1154              JUNCTION     0.23     0.41     9.47     0  02:11        0.41
  YSB6556              JUNCTION     0.12     0.30     9.47     0  02:11        0.30
  YSB1174              JUNCTION     0.18     0.36     9.47     0  02:11        0.36
  YSB1171              JUNCTION     0.38     0.57     9.47     0  02:11        0.57
  YS02006553           JUNCTION     0.70     0.95     7.23     0  02:40        0.95
  YS02006561           JUNCTION     0.14     0.27     6.93     0  02:35        0.27
  YS02006556           JUNCTION     0.67     0.92     7.23     0  02:41        0.92
  YS02006558           JUNCTION     0.71     0.96     7.23     0  02:41        0.96
  YS02001783           JUNCTION     0.25     0.48     6.62     0  02:36        0.48
  YS02001784           JUNCTION     0.28     0.50     6.57     0  02:36        0.50
  YS02001786           JUNCTION     0.24     0.43     6.46     0  02:36        0.42
  YS02001788           JUNCTION     0.18     0.45     6.43     0  06:03        0.44
  YS02001790           JUNCTION     0.24     1.14     6.79     0  06:03        0.84
  YS02001791           JUNCTION     0.20     1.69     7.16     0  04:13        0.97
  YS02001793           JUNCTION     0.27     1.94     6.77     0  04:09        1.56
  WSC                  OUTFALL      0.31     0.40     1.07     0  05:09        0.40
  JK-storage           STORAGE      1.85     5.59     6.39     0  06:03        5.59
  CC-storage           STORAGE      0.98     1.28     8.28     0  04:45        1.28
  XR-storage           STORAGE      2.42     6.82     4.82     0  07:50        6.82
  
  
  *******************
  Node Inflow Summary
  *******************
  
  -------------------------------------------------------------------------------------------------
                                  Maximum  Maximum                  Lateral       Total        Flow
                                  Lateral    Total  Time of Max      Inflow      Inflow     Balance
                                   Inflow   Inflow   Occurrence      Volume      Volume       Error
  Node                 Type           LPS      LPS  days hr:min    10^6 ltr    10^6 ltr     Percent
  -------------------------------------------------------------------------------------------------
  WS02001211           JUNCTION      7.35   389.20     0  03:58       0.207        7.88       0.354
  WS02001212           JUNCTION      0.00   390.86     0  03:58           0        7.86       0.216
  WS02001213           JUNCTION      0.00   392.45     0  03:59           0        7.85       0.271
  WS02003069           JUNCTION      0.32   951.43     0  05:08     0.00902          16       0.154
  WS02003072           JUNCTION      0.00   951.41     0  05:08           0          16       0.199
  WS02003073           JUNCTION      1.82   953.22     0  05:08      0.0514          16       0.218
  WS02003060           JUNCTION     16.53   951.15     0  05:07       0.466          16       0.147
  WS02003066           JUNCTION      0.00   547.14     0  05:03           0        7.79       0.051
  WS02003059           JUNCTION      0.00   394.99     0  03:59           0        7.84       0.393
  WS02003067           JUNCTION      0.00   547.13     0  05:05           0         7.8       0.108
  WS02004401           JUNCTION      0.00   547.27     0  05:01           0        8.01       0.239
  WS02004402           JUNCTION      0.00   547.22     0  04:57           0        7.99       0.228
  WS02004403           JUNCTION      0.00   547.17     0  04:57           0        7.97       0.210
  WS02004404           JUNCTION      0.16   547.30     0  05:02     0.00457        7.96       0.160
  WS02004406           JUNCTION      0.00   547.36     0  04:58           0        7.93       0.390
  WS02004409           JUNCTION      0.00   547.25     0  04:58           0        7.89       0.174
  WS02004410           JUNCTION      0.00   547.21     0  05:03           0        7.88       0.201
  WS02004411           JUNCTION      0.00   547.19     0  05:02           0        7.86       0.210
  WS02004412           JUNCTION      0.00   547.18     0  05:02           0        7.85       0.232
  WS02004413           JUNCTION      0.00   547.16     0  05:03           0        7.83       0.350
  WS02004405           JUNCTION      0.04   547.34     0  04:58     0.00107        7.95       0.243
  WS02006109           JUNCTION      1.23   559.75     0  03:44      0.0347        8.08       0.240
  WS02006110           JUNCTION      0.00   559.59     0  03:44           0        8.07       0.219
  WS02006111           JUNCTION      0.00   580.27     0  03:45           0        8.04       0.043
  WS02006112           JUNCTION     11.87   564.29     0  03:44      0.0327        8.07       0.312
  WS02006113           JUNCTION      0.00   560.17     0  03:44           0        8.05       0.100
  WS02006115           JUNCTION      0.00   564.86     0  03:44           0        8.04       0.217
  WS02006116           JUNCTION      0.00   547.63     0  05:07           0        8.03       0.213
  WS02006230           JUNCTION     10.28   540.44     0  06:20        0.29        7.02       0.158
  WS02006231           JUNCTION      0.00   529.09     0  06:20           0        6.73       0.138
  WS02006232           JUNCTION      0.00   529.62     0  06:20           0        6.74       0.221
  WS02006234           JUNCTION      0.00   529.05     0  06:20           0        6.75       0.091
  WS02006235           JUNCTION      0.00   526.02     0  06:20           0        6.81       0.135
  WS02006238           JUNCTION      0.00   418.12     0  05:10           0        4.32       0.166
  WS02006240           JUNCTION      0.00   416.55     0  05:10           0        4.28       0.237
  WS02006242           JUNCTION      0.00   416.21     0  05:10           0        4.27       0.297
  WS02006243           JUNCTION      0.00   416.20     0  05:10           0        4.26       0.033
  WS02006245           JUNCTION      0.00   416.04     0  05:10           0        4.26       0.193
  WS02006247           JUNCTION      0.00   416.28     0  05:10           0        4.27       0.150
  WS02006248           JUNCTION      0.00   417.28     0  05:10           0        4.27       0.102
  WS02006249           JUNCTION      0.00   427.25     0  06:20           0        4.43       0.202
  WS02006239           JUNCTION      0.00   417.76     0  05:10           0         4.3       0.184
  WS02006251           JUNCTION      0.08   412.71     0  06:20     0.00217         4.5       0.192
  WS02006252           JUNCTION      0.00   400.00     0  04:50           0        4.26       0.014
  WS02006253           JUNCTION      1.73   127.72     0  03:41     0.00424       0.246       1.612
  WS02006256           JUNCTION      0.00   983.00     0  00:00           0        5.42      -0.010
  WS02004138           JUNCTION      0.00   380.00     0  00:00           0         7.7       0.064
  WS02004139           JUNCTION      0.32   396.51     0  00:00     0.00905         7.7       0.437
  WS02004407           JUNCTION      0.00   547.29     0  04:58           0         7.9       0.078
  WS02006228           JUNCTION      0.00   558.51     0  03:44           0        8.07       0.184
  WS02006229           JUNCTION      0.00   560.94     0  06:20           0        8.08       0.155
  WS02006280           JUNCTION      0.00   275.96     0  02:13           0        1.08       0.006
  WS02006284           JUNCTION      0.10   275.95     0  02:12      0.0027        1.08       0.109
  WS02006287           JUNCTION      0.00   275.82     0  02:12           0        1.08       0.067
  WSF200               JUNCTION      0.00   547.16     0  05:03           0        7.79       0.046
  HS02004901           JUNCTION     14.58    14.58     0  02:06      0.0394      0.0396       4.649
  HS02004881           JUNCTION      6.02    54.03     0  02:11      0.0172       0.182       0.071
  HS02004876           JUNCTION      9.89    48.25     0  02:12       0.033       0.165       0.320
  HS02004870           JUNCTION     10.76    38.58     0  02:12      0.0326       0.132       0.080
  HS02004862           JUNCTION      9.05    28.50     0  02:12      0.0382         0.1       0.168
  HS02004856           JUNCTION      8.00    19.54     0  02:12      0.0245      0.0633       2.330
  HS02004852           JUNCTION      0.00    12.03     0  02:12           0      0.0388       0.131
  HS02004848           JUNCTION     18.38    18.38     0  02:14      0.0779      0.0779       0.056
  HS02004842           JUNCTION      0.00     6.91     0  02:22           0      0.0521      33.245
  HS02004837           JUNCTION     23.84    29.78     0  02:11       0.236       0.275       0.297
  HS02004830           JUNCTION      0.15    29.91     0  02:12     0.00423       0.265       0.467
  HS02004824           JUNCTION     20.74    50.47     0  02:14       0.102       0.366       0.147
  HS02004817           JUNCTION      0.60    51.07     0  02:14      0.0169       0.382       4.557
  HS02004807           JUNCTION     20.16    69.66     0  02:13      0.0599       0.426       1.003
  HS02004802           JUNCTION      0.00    70.07     0  02:14           0       0.421       0.972
  HS02004799           JUNCTION     15.66   175.63     0  02:10      0.0485       0.574       0.414
  HS02004792           JUNCTION     69.03   160.25     0  02:10        0.21       0.526       0.078
  HS02004788           JUNCTION     23.00    93.15     0  02:10       0.114       0.317       0.124
  HS02004785           JUNCTION      0.15    70.55     0  02:10     0.00423       0.205       0.234
  HS02004777           JUNCTION      0.03    70.88     0  02:09    0.000846       0.205       2.587
  HS02004770           JUNCTION     58.33    71.93     0  02:08       0.168       0.206       1.524
  HS02004480           JUNCTION      0.00   207.31     0  02:11           0       0.672       0.111
  HS02004479           JUNCTION      0.00    32.35     0  02:12           0       0.111       0.664
  HS02004478           JUNCTION      0.00   275.79     0  02:12           0        1.08       0.054
  YS02001745           JUNCTION    102.41   138.40     0  03:07        1.09         1.1       0.532
  YS02001748           JUNCTION      0.04   336.42     0  02:56     0.00127        1.11       1.760
  YS02001751           JUNCTION      0.01   388.42     0  02:56     0.00031        1.09       2.000
  YS02001754           JUNCTION      0.26   172.54     0  02:55     0.00733        1.06       2.301
  YS02001762           JUNCTION      0.00   161.48     0  02:56           0        1.19       1.799
  YS02001765           JUNCTION      0.00   159.39     0  02:55           0        1.19       2.078
  YS02001767           JUNCTION      0.54   158.60     0  02:55      0.0151        1.21       3.046
  YS02001770           JUNCTION    132.43   159.76     0  02:55        1.26        1.28       2.550
  YS02001774           JUNCTION      0.00    49.29     0  02:11           0      0.0662      61.874
  YS02001779           JUNCTION      0.01    37.23     0  02:57    0.000141      0.0257     144.681
  YS02001882           JUNCTION      0.00     4.94     0  02:04           0     0.00688      35.001
  YS02001884           JUNCTION      0.00    13.79     0  02:04           0      0.0265      23.796
  YS02001759           JUNCTION    129.86   286.52     0  02:55        1.18        2.33       1.001
  YS02001887           JUNCTION    171.82   174.20     0  02:34        1.39         1.4       0.530
  YS02001890           JUNCTION      0.00   172.18     0  02:34           0        1.37       0.593
  YS02001898           JUNCTION      0.00   172.11     0  02:33           0        1.36       0.176
  YS02001901           JUNCTION      0.00   173.00     0  02:36           0        1.36       0.427
  YS02001904           JUNCTION      0.00   173.49     0  02:33           0        1.36       0.396
  YS02001907           JUNCTION      0.00   307.81     0  02:36           0        2.93       0.771
  YS02001910           JUNCTION      0.00   139.90     0  02:55           0        1.59       0.664
  YS02001915           JUNCTION     92.00   138.08     0  02:48       0.931        1.59       0.304
  YS02001918           JUNCTION      0.00    47.16     0  03:00           0       0.662       0.197
  YS02001619           JUNCTION     89.37    89.37     0  02:43        0.92        0.92       1.256
  YS02001629           JUNCTION      0.00   192.44     0  03:00           0       0.842       3.331
  YS02001641           JUNCTION      0.00   195.22     0  02:57           0        1.82       1.186
  YS02001644           JUNCTION     97.24   290.27     0  02:57        1.05        2.84       0.920
  YS02001652           JUNCTION      0.00   163.20     0  02:57           0       0.979       2.427
  YS02001655           JUNCTION      0.15   327.61     0  03:00     0.00434           1       2.175
  YS02001920           JUNCTION      2.87    46.77     0  03:01      0.0809       0.664       0.337
  YS02001923           JUNCTION      0.04    43.90     0  03:01     0.00106       0.583       0.060
  YS02001926           JUNCTION      0.05    43.89     0  03:01     0.00147       0.585       0.419
  YS02001929           JUNCTION     43.85    43.85     0  03:01       0.584       0.584       0.058
  YS02001658           JUNCTION      0.00   298.86     0  02:56           0        1.03       1.585
  YS02001661           JUNCTION      0.00   344.05     0  04:18           0        1.35       0.539
  YS02001664           JUNCTION    121.64   305.70     0  04:18        1.02        1.33       0.151
  YS02001622           JUNCTION      0.00   137.01     0  03:01           0        0.91       3.550
  YS02001633           JUNCTION     98.77   197.70     0  02:51        1.08        1.88       1.740
  YS02001649           JUNCTION      0.00   434.78     0  02:49           0        3.73       1.001
  YS02001757           JUNCTION      0.00   755.84     0  02:56           0           7       1.333
  YS02001895           JUNCTION      0.00   172.73     0  02:35           0        1.37       0.289
  YS02001625           JUNCTION      0.00   193.39     0  03:00           0       0.879       4.657
  YS02163301           JUNCTION      0.00   101.11     0  02:51           0       0.825       2.997
  YS02163601           JUNCTION      0.11   197.03     0  02:51      0.0031        1.84       1.658
  YS02164001           JUNCTION      0.00   196.03     0  02:51           0        1.82       1.113
  YS02001647           JUNCTION      0.00   291.20     0  02:57           0         2.8       1.004
  YSB1154              JUNCTION     17.59    17.59     0  02:09      0.0588        0.06       2.468
  YSB6556              JUNCTION      0.00    17.48     0  02:11           0      0.0609       2.089
  YSB1174              JUNCTION     16.39    16.39     0  02:06      0.0427      0.0435       3.044
  YSB1171              JUNCTION      0.00    32.27     0  02:11           0        0.11       6.111
  YS02006553           JUNCTION      0.00   307.43     0  02:36           0        2.92       0.499
  YS02006561           JUNCTION      0.00   481.40     0  02:34           0        4.14       0.007
  YS02006556           JUNCTION      0.00   307.62     0  02:36           0        2.92       0.362
  YS02006558           JUNCTION    144.77   449.99     0  02:35        1.27        4.17       0.121
  YS02001783           JUNCTION      0.00   450.75     0  02:36           0        4.14       0.041
  YS02001784           JUNCTION      1.06   451.59     0  02:36      0.0299        4.17       0.067
  YS02001786           JUNCTION      0.06   450.44     0  02:36     0.00159        4.16       0.066
  YS02001788           JUNCTION      0.07   450.05     0  02:36       0.002        4.16       0.038
  YS02001790           JUNCTION      0.15   450.13     0  02:37     0.00437        4.17       0.029
  YS02001791           JUNCTION      0.00   449.63     0  02:37           0        4.17       0.011
  YS02001793           JUNCTION      0.00   523.11     0  03:17           0        4.18      -0.067
  WSC                  OUTFALL       0.00   953.21     0  05:09           0          16       0.000
  JK-storage           STORAGE       0.00   736.64     0  02:28           0        4.33     -22.204
  CC-storage           STORAGE       0.00   758.62     0  02:56           0         6.9       0.778
  XR-storage           STORAGE     385.61   385.61     0  02:43        7.82        8.42      -1.103
  
  
  **********************
  Node Surcharge Summary
  **********************
  
  Surcharging occurs when water rises above the top of the highest conduit.
  ---------------------------------------------------------------------
                                               Max. Height   Min. Depth
                                   Hours       Above Crown    Below Rim
  Node                 Type      Surcharged         Meters       Meters
  ---------------------------------------------------------------------
  WS02006109           JUNCTION        2.35          0.180        1.640
  WS02006110           JUNCTION        0.87          0.033        1.817
  WS02006112           JUNCTION        1.08          0.072        1.608
  WS02006230           JUNCTION        0.77          0.087        1.483
  WS02006231           JUNCTION        1.08          0.210        1.320
  WS02006232           JUNCTION        1.95          0.417        1.063
  WS02006234           JUNCTION        1.57          0.429        0.811
  WS02006235           JUNCTION        1.77          0.546        0.744
  WS02006238           JUNCTION        1.84          0.573        0.857
  WS02006240           JUNCTION        1.57          0.542        0.848
  WS02006242           JUNCTION        1.69          0.590        0.230
  WS02006243           JUNCTION        1.47          0.499        0.271
  WS02006245           JUNCTION        1.40          0.463        0.387
  WS02006247           JUNCTION        1.43          0.460        0.300
  WS02006248           JUNCTION        1.19          0.376        0.004
  WS02006249           JUNCTION        1.27          0.390        0.000
  WS02006239           JUNCTION        1.63          0.548        0.742
  WS02006251           JUNCTION        0.73          0.231        0.949
  WS02006252           JUNCTION        2.60          0.408        0.692
  WS02006253           JUNCTION        0.76          0.274        2.206
  WS02006256           JUNCTION        6.25          2.050        0.000
  WS02006228           JUNCTION        2.29          0.215        1.985
  YS02001748           JUNCTION        2.56          0.157        1.033
  YS02001751           JUNCTION        4.66          0.431        0.769
  YS02001754           JUNCTION        5.03          0.661        0.489
  YS02001762           JUNCTION        5.48          0.947        0.203
  YS02001765           JUNCTION        5.45          0.907        0.193
  YS02001767           JUNCTION        5.42          0.876        0.154
  YS02001770           JUNCTION        5.40          0.858        0.062
  YS02001774           JUNCTION        5.47          0.960        0.090
  YS02001779           JUNCTION        4.93          0.680        0.000
  YS02001759           JUNCTION        5.50          0.972        0.238
  YS02001619           JUNCTION        4.59          0.503        0.107
  YS02001629           JUNCTION        4.60          0.470        0.000
  YS02001641           JUNCTION        5.46          0.942        0.158
  YS02001644           JUNCTION        5.46          0.920        0.000
  YS02001652           JUNCTION        5.20          0.738        0.392
  YS02001655           JUNCTION        4.71          0.588        0.612
  YS02001658           JUNCTION        2.60          0.451        0.849
  YS02001622           JUNCTION        4.63          0.517        0.103
  YS02001633           JUNCTION        5.44          0.935        0.125
  YS02001649           JUNCTION        5.49          0.957        0.093
  YS02001757           JUNCTION        5.57          1.070        0.140
  YS02001625           JUNCTION        5.30          0.780        0.000
  YS02163301           JUNCTION        5.41          0.890        0.140
  YS02163601           JUNCTION        5.48          1.004        0.076
  YS02164001           JUNCTION        5.45          0.936        0.164
  YS02001647           JUNCTION        5.25          0.743        0.157
  YS02001790           JUNCTION        0.01          0.342        0.815
  YS02001791           JUNCTION        0.21          0.887        1.033
  YS02001793           JUNCTION        0.69          0.936        1.664
  
  
  *********************
  Node Flooding Summary
  *********************
  
  Flooding refers to all water that overflows a node, whether it ponds or not.
  --------------------------------------------------------------------------
                                                             Total   Maximum
                                 Maximum   Time of Max       Flood    Ponded
                        Hours       Rate    Occurrence      Volume     Depth
  Node                 Flooded       LPS   days hr:min    10^6 ltr    Meters
  --------------------------------------------------------------------------
  WS02006249              0.69    104.45      0  06:20       0.153     0.000
  WS02006256              2.26    978.40      0  00:00       2.870     0.000
  YS02001779              0.01      6.75      0  04:29       0.000     0.000
  YS02001629              0.01      3.71      0  03:42       0.000     0.000
  YS02001644              0.01      7.87      0  04:27       0.000     0.000
  YS02001625              0.02     14.28      0  03:59       0.000     0.000
  
  
  **********************
  Storage Volume Summary
  **********************
  
  --------------------------------------------------------------------------------------------------
                         Average     Avg  Evap Exfil       Maximum     Max    Time of Max    Maximum
                          Volume    Pcnt  Pcnt  Pcnt        Volume    Pcnt     Occurrence    Outflow
  Storage Unit           1000 m3    Full  Loss  Loss       1000 m3    Full    days hr:min        LPS
  --------------------------------------------------------------------------------------------------
  JK-storage               0.093      32     0     0         0.281      96       0  06:03     983.00
  CC-storage               2.724      17     0     0         3.563      23       0  04:45     400.00
  XR-storage               0.290      31     0     0         0.819      88       0  07:50     380.00
  
  
  ***********************
  Outfall Loading Summary
  ***********************
  
  ---------------------------------------------------------------------------------------------------------------------------------
                         Flow       Avg       Max       Total         Total         Total         Total         Total         Total
                         Freq      Flow      Flow      Volume           COD            SS            TN            TP         NH4-N
  Outfall Node           Pcnt       LPS       LPS    10^6 ltr            kg            kg            kg            kg            kg
  ---------------------------------------------------------------------------------------------------------------------------------
  WSC                   99.98    628.83    953.21      15.973      1864.676      3045.492       145.337        17.633        89.432
  ---------------------------------------------------------------------------------------------------------------------------------
  System                99.98    628.83    953.21      15.973      1864.676      3045.492       145.337        17.633        89.432
  
  
  ********************
  Link Flow Summary
  ********************
  
  -----------------------------------------------------------------------------
                                 Maximum  Time of Max   Maximum    Max/    Max/
                                  |Flow|   Occurrence   |Veloc|    Full    Full
  Link                 Type          LPS  days hr:min     m/sec    Flow   Depth
  -----------------------------------------------------------------------------
  WS02003066WSF200     CONDUIT    547.16     0  05:03      2.82    0.09    0.23
  WS02006287WS02006284 CONDUIT    275.85     0  02:12      1.79    0.13    0.25
  WS02006284WS02006280 CONDUIT    275.96     0  02:13      2.03    0.12    0.23
  WS02006280WS02006229 CONDUIT    275.96     0  02:13      3.27    0.06    0.16
  WS02006229WS02006228 CONDUIT    558.51     0  03:44      1.11    1.85    1.00
  WS02006256WS02006235 CONDUIT    288.60     0  00:00      4.23    3.05    1.00
  WS02006253WS02006251 CONDUIT    123.11     0  03:41      0.54    0.37    1.00
  WS02006252WS02006251 CONDUIT    404.58     0  06:20      3.22    1.49    1.00
  WS02006251WS02006249 CONDUIT    427.25     0  06:20      1.11    1.23    1.00
  WS02006249WS02006248 CONDUIT    417.28     0  05:10      1.15    2.29    1.00
  WS02006248WS02006247 CONDUIT    416.28     0  05:10      1.10    0.91    1.00
  WS02006247WS02006245 CONDUIT    416.04     0  05:10      1.08    3.30    1.00
  WS02006245WS02006243 CONDUIT    416.20     0  05:10      1.08    1.23    1.00
  WS02006243WS02006242 CONDUIT    416.21     0  05:10      1.08    0.89    1.00
  WS02006242WS02006240 CONDUIT    416.55     0  05:10      1.08    1.65    1.00
  WS02006240WS02006239 CONDUIT    417.76     0  05:10      1.09    1.31    1.00
  WS02006239WS02006238 CONDUIT    418.12     0  05:10      1.09    1.34    1.00
  WS02006238WS02006235 CONDUIT    420.05     0  05:10      1.46    0.94    1.00
  WS02006235WS02006234 CONDUIT    529.05     0  06:20      1.37    5.58    1.00
  WS02006234WS02006232 CONDUIT    529.62     0  06:20      1.39    1.07    1.00
  WS02006232WS02006231 CONDUIT    529.09     0  06:20      1.37    1.11    1.00
  WS02006231WS02006230 CONDUIT    530.16     0  06:20      1.38    8.04    1.00
  WS02006230WS02006229 CONDUIT    549.73     0  06:20      1.43   12.23    1.00
  WS02006228WS02006109 CONDUIT    558.52     0  03:44      1.11    2.44    1.00
  WS02006116WS02004401 CONDUIT    547.27     0  05:01      0.79    0.75    0.85
  WS02006115WS02006116 CONDUIT    547.63     0  05:07      0.90    0.70    0.77
  WS02006113WS02006111 CONDUIT    580.27     0  03:45      2.49    0.70    0.47
  WS02006112WS02006115 CONDUIT    564.86     0  03:44      0.79    0.33    0.88
  WS02006111WS02006112 CONDUIT    563.94     0  03:44      1.56    0.27    0.68
  WS02006110WS02006113 CONDUIT    560.17     0  03:44      1.32    0.51    0.79
  WS02006109WS02006110 CONDUIT    559.59     0  03:44      1.11    1.08    1.00
  WS02004411WS02004412 CONDUIT    547.18     0  05:02      0.93    0.78    0.70
  WS02004401WS02004402 CONDUIT    547.22     0  04:57      0.75    0.66    0.87
  WS02004413WS02003067 CONDUIT    547.13     0  05:05      1.12    0.23    0.60
  WS02004412WS02004413 CONDUIT    547.16     0  05:03      0.83    0.37    0.78
  WS02004410WS02004411 CONDUIT    547.19     0  05:02      0.94    0.75    0.69
  WS02004409WS02004410 CONDUIT    547.21     0  05:03      0.98    0.71    0.68
  WS02004407WS02004409 CONDUIT    547.25     0  04:58      1.49    0.19    0.49
  WS02004406WS02004407 CONDUIT    547.29     0  04:58      1.05    0.24    0.63
  WS02004405WS02004406 CONDUIT    547.36     0  04:58      0.71    1.08    0.96
  WS02004404WS02004405 CONDUIT    547.30     0  04:58      0.70    5.36    0.97
  WS02004403WS02004404 CONDUIT    547.13     0  05:02      0.72    0.40    0.93
  WS02004402WS02004403 CONDUIT    547.17     0  04:57      0.74    0.79    0.89
  WS02004139WS02001211 CONDUIT    381.86     0  03:58      0.90    0.48    0.60
  WS02004138WS02004139 CONDUIT    396.19     0  00:00      3.65    0.08    0.44
  WS02003067WS02003066 CONDUIT    547.14     0  05:03      1.22    0.18    0.42
  WS02001213WS02003059 CONDUIT    394.99     0  03:59      0.88    0.65    0.78
  WS02001212WS02001213 CONDUIT    392.45     0  03:59      1.32    0.61    0.48
  WS02001211WS02001212 CONDUIT    390.86     0  03:58      0.78    0.30    0.65
  WS02003072WS02003073 CONDUIT    951.40     0  05:08      1.73    2.05    0.49
  WS02003069WS02003072 CONDUIT    951.41     0  05:08      1.63    0.46    0.51
  WS02003060WS02003069 CONDUIT    951.11     0  05:08      1.87    0.37    0.46
  WS02003059WS02003060 CONDUIT    398.40     0  03:59      0.95    0.26    0.67
  HS02004901HS02004770 CONDUIT     13.84     0  02:09      0.06    0.05    0.36
  HS02004876HS02004881 CONDUIT     48.42     0  02:12      0.72    0.52    0.10
  HS02004870HS02004876 CONDUIT     38.55     0  02:12      0.50    0.03    0.11
  HS02004842HS02004848 CONDUIT      6.91     0  02:22      0.04    0.00    0.28
  HS02004837HS02004842 CONDUIT      7.20     0  02:23      0.42    0.00    0.30
  HS02004830HS02004837 CONDUIT     29.76     0  02:12      0.49    0.03    0.09
  HS02004824HS02004830 CONDUIT     29.90     0  02:12      0.52    0.04    0.08
  HS02004817HS02004824 CONDUIT     50.47     0  02:14      0.17    0.02    0.43
  HS02004770HS02004777 CONDUIT     70.85     0  02:09      0.27    0.13    0.37
  HS02004799HS02004480 CONDUIT    175.33     0  02:10      0.69    0.22    0.36
  HS02004792HS02004799 CONDUIT    160.14     0  02:10      0.79    0.10    0.29
  HS02004788HS02004792 CONDUIT     93.07     0  02:11      0.92    0.06    0.14
  HS02004785HS02004788 CONDUIT     70.45     0  02:11      0.59    0.53    0.17
  HS02004777HS02004785 CONDUIT     70.40     0  02:10      0.33    0.09    0.30
  HS02004480HS02004478 CONDUIT    207.25     0  02:11      1.09    0.87    0.27
  HS02004479HS02004480 CONDUIT     32.63     0  02:12      0.17    0.03    0.35
  HS02004862HS02004870 CONDUIT     28.45     0  02:13      0.54    0.03    0.08
  HS02004848HS02004852 CONDUIT     12.03     0  02:12      0.36    0.01    0.05
  HS02004856HS02004862 CONDUIT     19.50     0  02:13      0.40    0.02    0.07
  HS02004852HS02004856 CONDUIT     11.97     0  02:13      0.16    0.01    0.10
  HS02004802HS02004478 CONDUIT     70.63     0  02:15      0.35    0.06    0.29
  HS02004478WS02006287 CONDUIT    275.82     0  02:12      1.49    0.08    0.21
  HS02004817HS02004807 CONDUIT     51.81     0  02:16      0.13    0.03    0.55
  HS02004807HS02004802 CONDUIT     70.07     0  02:14      0.30    0.13    0.34
  YS02001759YS02001757 CONDUIT    288.54     0  02:56      0.37    0.21    1.00
  YS02001762YS02001759 CONDUIT    164.00     0  02:56      0.21    0.19    1.00
  YS02001765YS02001762 CONDUIT    161.48     0  02:56      0.25    0.15    1.00
  YS02001770YS02001767 CONDUIT    158.06     0  02:55      0.29    0.63    1.00
  YS02001774YS02001770 CONDUIT     49.29     0  02:11      0.13    0.03    1.00
  YS02001779YS02001774 CONDUIT     37.23     0  02:57      0.07    0.02    1.00
  YS02001649YS02001757 CONDUIT    435.37     0  02:49      0.55    0.26    1.00
  YS02001767YS02001765 CONDUIT    159.39     0  02:55      0.27    0.20    1.00
  YS02006561YS02001783 CONDUIT    450.75     0  02:36      1.95    0.23    0.47
  YS02001783YS02001784 CONDUIT    450.53     0  02:36      1.39    0.62    0.61
  YS02001784YS02001785 CONDUIT    450.38     0  02:36      1.49    1.05    0.58
  YS02001788YS02001790 CONDUIT    449.97     0  02:37      2.05    0.33    0.75
  YS02001790YS02001791 CONDUIT    449.63     0  02:37      2.39    0.49    1.00
  YS02001791YS02001793 CONDUIT    523.11     0  03:17      4.89    0.22    1.00
  YS02001910YS02001907 CONDUIT    140.84     0  02:55      0.49    0.08    0.83
  YS02001786YS02001788 CONDUIT    449.98     0  02:36      1.94    0.87    0.51
  YS02001915YS02001910 CONDUIT    139.90     0  02:55      0.45    0.07    0.62
  YS02001918YS02001915 CONDUIT     48.61     0  03:03      0.44    0.03    0.34
  YS02001923YS02001920 CONDUIT     43.90     0  03:01      0.51    0.02    0.17
  YS02001926YS02001923 CONDUIT     43.86     0  03:01      0.56    0.06    0.16
  YS02001929YS02001926 CONDUIT     43.84     0  03:01      0.60    0.02    0.15
  YS02001920YS02001918 CONDUIT     47.16     0  03:00      0.52    0.05    0.21
  YS02001629YS02163301 CONDUIT    101.11     0  02:51      0.13    0.12    1.00
  YS02001619YS02001622 CONDUIT    137.01     0  03:01      0.68    0.20    1.00
  YS02001622YS02001625 CONDUIT    193.39     0  03:00      0.28    0.10    1.00
  YS02001625YS02001629 CONDUIT    192.44     0  03:00      0.28    0.09    1.00
  YS02163301YS02001633 CONDUIT     99.16     0  02:51      0.13    0.09    1.00
  YS02163601YS02164001 CONDUIT    196.03     0  02:51      0.25    0.17    1.00
  YS02164001YS02001641 CONDUIT    195.22     0  02:57      0.25    0.27    1.00
  YS02001641YS02001644 CONDUIT    194.11     0  02:57      0.25    0.63    1.00
  YS02001647YS02001649 CONDUIT    295.05     0  02:32      0.38    0.16    1.00
  YS02006553YS02006556 CONDUIT    307.62     0  02:36      0.41    0.26    0.91
  YS02006556YS02006558 CONDUIT    305.49     0  02:44      0.40    0.24    0.94
  YSB6556YSB1171       CONDUIT     17.82     0  02:14      0.07    0.02    0.62
  YS02001907YS02006553 CONDUIT    307.43     0  02:36      0.34    0.36    1.00
  YS02006558YS02006561 CONDUIT    481.40     0  02:34      2.71    1.06    0.61
  YS02001633YS02163601 CONDUIT    196.92     0  02:51      0.25    0.21    1.00
  YS02001644YS02001647 CONDUIT    291.20     0  02:57      0.37    0.17    1.00
  YS02001745YS02001748 CONDUIT    251.32     0  02:57      1.52    0.10    0.90
  YS02001748YS02001751 CONDUIT    388.41     0  02:56      1.16    0.20    1.00
  YS02001751YS02001754 CONDUIT    172.28     0  02:55      0.91    0.08    1.00
  YS02001754YS02001757 CONDUIT    179.74     0  02:55      0.33    0.07    1.00
  YS02001882YS02001884 CONDUIT      4.94     0  02:04      0.07    0.01    0.56
  YS02001884YS02001887 CONDUIT     13.79     0  02:04      0.05    0.02    0.65
  YS02001890YS02001895 CONDUIT    172.73     0  02:35      0.34    0.08    0.62
  YS02001895YS02001898 CONDUIT    172.11     0  02:33      0.46    0.30    0.49
  YS02001898YS02001901 CONDUIT    173.00     0  02:36      0.38    0.11    0.57
  YS02001901YS02001904 CONDUIT    173.49     0  02:33      0.34    0.27    0.62
  YS02001904YS02001907 CONDUIT    173.30     0  02:36      0.27    0.06    0.78
  YS02001887YS02001890 CONDUIT    172.18     0  02:34      0.29    0.29    0.71
  YS02001652YS02001649 CONDUIT    161.58     0  02:57      0.37    0.08    1.00
  YS02001655YS02001652 CONDUIT    163.20     0  02:57      0.95    0.08    1.00
  YS02001658YS02001655 CONDUIT    327.46     0  03:00      1.35    0.14    1.00
  YS02001661YS02001658 CONDUIT    298.86     0  02:56      1.58    0.12    0.96
  YS02001664YS02001661 CONDUIT    344.05     0  04:18      1.31    0.11    0.64
  YSB1154YSB6556       CONDUIT     17.48     0  02:11      0.19    0.03    0.51
  YSB1174YSB1171       CONDUIT     15.47     0  02:07      0.06    0.02    0.63
  YSB1171HS02004479    CONDUIT     32.35     0  02:12      0.54    0.02    0.49
  HS02004881HS02006253 CONDUIT     54.03     0  02:12      1.89    0.01    0.50
  YS02001793JiankangQianchi CONDUIT    736.64     0  02:28     14.89    0.06    1.00
  YS02001757CaochengTiaoxuchi CONDUIT    758.62     0  02:56      1.47    0.33    1.00
  WSF200WS02003060     CONDUIT    547.19     0  05:04      2.07    0.12    0.34
  1                    CONDUIT    953.21     0  05:09      3.28    0.33    0.40
  CC-Pump-1            PUMP       200.00     0  03:40              1.00
  CC-Pump-2            PUMP       200.00     0  04:50              1.00
  JK-Pump-1            PUMP       300.00     0  00:00              1.00
  JK-Pump-2            PUMP       683.00     0  00:00              1.00
  XR-Pump-1            PUMP        95.00     0  00:00              1.00
  XR-Pump-2            PUMP        95.00     0  00:00              1.00
  XR-Pump-3            PUMP        95.00     0  00:00              1.00
  XR-Pump-4            PUMP        95.00     0  00:00              1.00
  
  
  ***************************
  Flow Classification Summary
  ***************************
  
  -------------------------------------------------------------------------------------
                      Adjusted    ---------- Fraction of Time in Flow Class ---------- 
                       /Actual         Up    Down  Sub   Sup   Up    Down  Norm  Inlet 
  Conduit               Length    Dry  Dry   Dry   Crit  Crit  Crit  Crit  Ltd   Ctrl  
  -------------------------------------------------------------------------------------
  WS02003066WSF200        1.00   0.04  0.04  0.00  0.00  0.92  0.00  0.00  0.56  0.00
  WS02006287WS02006284    1.00   0.03  0.02  0.00  0.80  0.16  0.00  0.00  0.77  0.00
  WS02006284WS02006280    1.00   0.03  0.00  0.00  0.00  0.00  0.00  0.97  0.00  0.00
  WS02006280WS02006229    1.00   0.04  0.00  0.00  0.00  0.00  0.00  0.96  0.00  0.00
  WS02006229WS02006228    1.00   0.00  0.00  0.00  1.00  0.00  0.00  0.00  0.00  0.00
  WS02006256WS02006235    1.00   0.00  0.00  0.00  1.00  0.00  0.00  0.00  0.00  0.00
  WS02006253WS02006251    1.00   0.01  0.02  0.00  0.97  0.00  0.00  0.00  0.00  0.00
  WS02006252WS02006251    1.00   0.18  0.00  0.00  0.06  0.00  0.76  0.00  0.00  0.00
  WS02006251WS02006249    1.00   0.00  0.00  0.00  1.00  0.00  0.00  0.00  0.32  0.00
  WS02006249WS02006248    1.00   0.00  0.01  0.00  0.90  0.00  0.09  0.00  0.00  0.00
  WS02006248WS02006247    1.00   0.01  0.00  0.00  0.98  0.00  0.00  0.01  0.18  0.00
  WS02006247WS02006245    1.00   0.01  0.00  0.00  0.97  0.00  0.00  0.02  0.00  0.00
  WS02006245WS02006243    1.00   0.00  0.00  0.00  0.94  0.00  0.00  0.06  0.01  0.00
  WS02006243WS02006242    1.00   0.00  0.00  0.00  1.00  0.00  0.00  0.00  0.30  0.00
  WS02006242WS02006240    1.00   0.00  0.00  0.00  1.00  0.00  0.00  0.00  0.00  0.00
  WS02006240WS02006239    1.00   0.00  0.00  0.00  0.93  0.00  0.00  0.07  0.01  0.00
  WS02006239WS02006238    1.00   0.00  0.00  0.00  1.00  0.00  0.00  0.00  0.21  0.00
  WS02006238WS02006235    1.00   0.00  0.00  0.00  1.00  0.00  0.00  0.00  0.00  0.00
  WS02006235WS02006234    1.00   0.00  0.00  0.00  0.94  0.00  0.06  0.00  0.00  0.00
  WS02006234WS02006232    1.00   0.00  0.00  0.00  1.00  0.00  0.00  0.00  0.16  0.00
  WS02006232WS02006231    1.00   0.00  0.00  0.00  1.00  0.00  0.00  0.00  0.00  0.00
  WS02006231WS02006230    1.00   0.00  0.00  0.00  0.66  0.00  0.34  0.00  0.00  0.00
  WS02006230WS02006229    1.00   0.00  0.00  0.00  1.00  0.00  0.00  0.00  0.01  0.00
  WS02006228WS02006109    1.00   0.00  0.00  0.00  1.00  0.00  0.00  0.00  0.00  0.00
  WS02006116WS02004401    1.00   0.01  0.00  0.00  0.99  0.00  0.00  0.00  0.01  0.00
  WS02006115WS02006116    1.00   0.01  0.00  0.00  0.97  0.00  0.00  0.02  0.01  0.00
  WS02006113WS02006111    1.00   0.01  0.00  0.00  0.00  0.99  0.00  0.00  0.17  0.00
  WS02006112WS02006115    1.00   0.01  0.00  0.00  0.99  0.00  0.00  0.00  0.00  0.00
  WS02006111WS02006112    1.00   0.01  0.00  0.00  0.99  0.00  0.00  0.00  0.98  0.00
  WS02006110WS02006113    1.00   0.00  0.00  0.00  0.99  0.00  0.00  0.00  0.00  0.00
  WS02006109WS02006110    1.00   0.00  0.00  0.00  1.00  0.00  0.00  0.00  0.00  0.00
  WS02004411WS02004412    1.00   0.05  0.00  0.00  0.95  0.00  0.00  0.00  0.00  0.00
  WS02004401WS02004402    1.00   0.01  0.00  0.00  0.99  0.00  0.00  0.00  0.01  0.00
  WS02004413WS02003067    1.00   0.06  0.02  0.00  0.00  0.00  0.93  0.00  0.00  0.00
  WS02004412WS02004413    1.00   0.05  0.00  0.00  0.94  0.00  0.00  0.00  0.01  0.00
  WS02004410WS02004411    1.00   0.05  0.00  0.00  0.95  0.00  0.00  0.00  0.00  0.00
  WS02004409WS02004410    1.00   0.05  0.00  0.00  0.95  0.00  0.00  0.00  0.00  0.00
  WS02004407WS02004409    1.00   0.05  0.00  0.00  0.94  0.00  0.00  0.00  0.78  0.00
  WS02004406WS02004407    1.00   0.00  0.05  0.00  0.95  0.00  0.00  0.00  0.00  0.00
  WS02004405WS02004406    1.00   0.00  0.00  0.00  1.00  0.00  0.00  0.00  0.02  0.00
  WS02004404WS02004405    1.00   0.00  0.00  0.00  1.00  0.00  0.00  0.00  0.00  0.00
  WS02004403WS02004404    1.00   0.00  0.01  0.00  0.99  0.00  0.00  0.00  0.02  0.00
  WS02004402WS02004403    1.00   0.01  0.00  0.00  0.99  0.00  0.00  0.00  0.00  0.00
  WS02004139WS02001211    1.00   0.00  0.00  0.00  1.00  0.00  0.00  0.00  0.00  0.00
  WS02004138WS02004139    1.00   0.00  0.04  0.00  0.96  0.00  0.00  0.00  1.00  0.00
  WS02003067WS02003066    1.00   0.07  0.00  0.00  0.92  0.00  0.00  0.00  0.00  0.00
  WS02001213WS02003059    1.00   0.00  0.00  0.00  1.00  0.00  0.00  0.00  0.00  0.00
  WS02001212WS02001213    1.00   0.00  0.00  0.00  0.91  0.00  0.09  0.00  0.00  0.00
  WS02001211WS02001212    1.00   0.00  0.00  0.00  1.00  0.00  0.00  0.00  0.00  0.00
  WS02003072WS02003073    1.00   0.00  0.00  0.00  0.00  0.00  0.00  1.00  0.00  0.00
  WS02003069WS02003072    1.00   0.00  0.00  0.00  1.00  0.00  0.00  0.00  0.23  0.00
  WS02003060WS02003069    1.00   0.00  0.00  0.00  1.00  0.00  0.00  0.00  0.16  0.00
  WS02003059WS02003060    1.00   0.00  0.00  0.00  1.00  0.00  0.00  0.00  0.00  0.00
  HS02004901HS02004770    1.00   0.03  0.00  0.00  0.97  0.00  0.00  0.00  0.01  0.00
  HS02004876HS02004881    1.00   0.01  0.00  0.00  0.99  0.00  0.00  0.00  0.00  0.00
  HS02004870HS02004876    1.00   0.00  0.00  0.00  1.00  0.00  0.00  0.00  0.95  0.00
  HS02004842HS02004848    1.00   0.00  0.03  0.00  0.97  0.00  0.00  0.00  0.65  0.00
  HS02004837HS02004842    1.00   0.00  0.00  0.00  1.00  0.00  0.00  0.00  0.11  0.00
  HS02004830HS02004837    1.00   0.00  0.00  0.00  1.00  0.00  0.00  0.00  0.99  0.00
  HS02004824HS02004830    1.00   0.00  0.00  0.00  1.00  0.00  0.00  0.00  0.00  0.00
  HS02004817HS02004824    1.00   0.00  0.00  0.00  1.00  0.00  0.00  0.00  1.00  0.00
  HS02004770HS02004777    1.00   0.00  0.03  0.00  0.97  0.00  0.00  0.00  0.05  0.00
  HS02004799HS02004480    1.00   0.00  0.01  0.00  0.95  0.00  0.04  0.00  0.00  0.00
  HS02004792HS02004799    1.00   0.00  0.00  0.00  1.00  0.00  0.00  0.00  0.98  0.00
  HS02004788HS02004792    1.00   0.00  0.00  0.00  1.00  0.00  0.00  0.00  0.98  0.00
  HS02004785HS02004788    1.00   0.00  0.00  0.00  1.00  0.00  0.00  0.00  0.00  0.00
  HS02004777HS02004785    1.00   0.00  0.00  0.00  1.00  0.00  0.00  0.00  0.17  0.00
  HS02004480HS02004478    1.00   0.04  0.00  0.00  0.83  0.00  0.00  0.13  0.00  0.00
  HS02004479HS02004480    1.00   0.01  0.00  0.00  0.99  0.00  0.00  0.00  0.15  0.00
  HS02004862HS02004870    1.00   0.00  0.00  0.00  1.00  0.00  0.00  0.00  0.05  0.00
  HS02004848HS02004852    1.00   0.03  0.00  0.00  0.97  0.00  0.00  0.00  0.72  0.00
  HS02004856HS02004862    1.00   0.00  0.06  0.00  0.94  0.00  0.00  0.00  0.77  0.00
  HS02004852HS02004856    1.00   0.03  0.01  0.00  0.96  0.00  0.00  0.00  0.84  0.00
  HS02004802HS02004478    1.00   0.04  0.01  0.00  0.96  0.00  0.00  0.00  0.01  0.00
  HS02004478WS02006287    1.00   0.05  0.00  0.00  0.90  0.05  0.00  0.00  0.75  0.00
  HS02004817HS02004807    1.00   0.00  0.03  0.00  0.97  0.00  0.00  0.00  0.00  0.00
  HS02004807HS02004802    1.00   0.03  0.00  0.00  0.96  0.00  0.00  0.00  0.01  0.00
  YS02001759YS02001757    1.00   0.00  0.00  0.00  1.00  0.00  0.00  0.00  0.18  0.00
  YS02001762YS02001759    1.00   0.00  0.00  0.00  1.00  0.00  0.00  0.00  0.04  0.00
  YS02001765YS02001762    1.00   0.00  0.00  0.00  1.00  0.00  0.00  0.00  0.20  0.00
  YS02001770YS02001767    1.00   0.00  0.00  0.00  1.00  0.00  0.00  0.00  0.00  0.00
  YS02001774YS02001770    1.00   0.00  0.04  0.00  0.96  0.00  0.00  0.00  0.05  0.00
  YS02001779YS02001774    1.00   0.00  0.00  0.00  1.00  0.00  0.00  0.00  0.24  0.00
  YS02001649YS02001757    1.00   0.00  0.00  0.00  1.00  0.00  0.00  0.00  0.18  0.00
  YS02001767YS02001765    1.00   0.00  0.00  0.00  1.00  0.00  0.00  0.00  0.01  0.00
  YS02006561YS02001783    1.00   0.06  0.00  0.00  0.01  0.93  0.00  0.00  0.64  0.00
  YS02001783YS02001784    1.00   0.00  0.06  0.00  0.94  0.00  0.00  0.00  0.01  0.00
  YS02001784YS02001785    1.00   0.00  0.00  0.00  1.00  0.00  0.00  0.00  0.23  0.00
  YS02001788YS02001790    1.00   0.00  0.00  0.00  0.17  0.83  0.00  0.00  0.68  0.00
  YS02001790YS02001791    1.00   0.00  0.00  0.00  0.13  0.87  0.00  0.00  0.54  0.00
  YS02001791YS02001793    1.00   0.00  0.00  0.00  0.19  0.81  0.00  0.00  0.05  0.00
  YS02001910YS02001907    1.00   0.00  0.00  0.00  0.99  0.00  0.00  0.01  0.13  0.00
  YS02001786YS02001788    1.00   0.00  0.00  0.00  0.12  0.88  0.00  0.00  0.00  0.00
  YS02001915YS02001910    1.00   0.00  0.00  0.00  1.00  0.00  0.00  0.00  0.22  0.00
  YS02001918YS02001915    1.00   0.00  0.00  0.00  0.99  0.00  0.00  0.00  0.70  0.00
  YS02001923YS02001920    1.00   0.00  0.00  0.00  1.00  0.00  0.00  0.00  1.00  0.00
  YS02001926YS02001923    1.00   0.00  0.02  0.00  0.00  0.00  0.98  0.00  0.00  0.00
  YS02001929YS02001926    1.00   0.00  0.03  0.00  0.97  0.00  0.00  0.00  0.87  0.00
  YS02001920YS02001918    1.00   0.00  0.00  0.00  1.00  0.00  0.00  0.00  0.00  0.00
  YS02001629YS02163301    1.00   0.05  0.00  0.00  0.95  0.00  0.00  0.00  0.00  0.00
  YS02001619YS02001622    1.00   0.03  0.00  0.00  0.97  0.00  0.00  0.00  0.00  0.00
  YS02001622YS02001625    1.00   0.03  0.00  0.00  0.97  0.00  0.00  0.00  0.10  0.00
  YS02001625YS02001629    1.00   0.03  0.03  0.00  0.92  0.00  0.01  0.00  0.00  0.00
  YS02163301YS02001633    1.00   0.00  0.05  0.00  0.95  0.00  0.00  0.00  0.00  0.00
  YS02163601YS02164001    1.00   0.00  0.02  0.00  0.98  0.00  0.00  0.00  0.00  0.00
  YS02164001YS02001641    1.00   0.00  0.02  0.00  0.98  0.00  0.00  0.00  0.07  0.00
  YS02001641YS02001644    1.00   0.00  0.00  0.00  1.00  0.00  0.00  0.00  0.00  0.00
  YS02001647YS02001649    1.00   0.00  0.06  0.00  0.94  0.00  0.00  0.00  0.01  0.00
  YS02006553YS02006556    1.00   0.00  0.00  0.00  1.00  0.00  0.00  0.00  0.03  0.00
  YS02006556YS02006558    1.00   0.00  0.00  0.00  1.00  0.00  0.00  0.00  0.00  0.00
  YSB6556YSB1171          1.00   0.01  0.02  0.00  0.97  0.00  0.00  0.00  0.00  0.00
  YS02001907YS02006553    1.00   0.00  0.01  0.00  0.99  0.00  0.00  0.00  0.00  0.00
  YS02006558YS02006561    1.00   0.06  0.00  0.00  0.00  0.94  0.00  0.00  0.68  0.00
  YS02001633YS02163601    1.00   0.00  0.00  0.00  1.00  0.00  0.00  0.00  0.18  0.00
  YS02001644YS02001647    1.00   0.00  0.06  0.00  0.94  0.00  0.00  0.00  0.00  0.00
  YS02001745YS02001748    1.00   0.00  0.00  0.00  0.91  0.00  0.00  0.09  0.07  0.00
  YS02001748YS02001751    1.00   0.00  0.00  0.00  0.97  0.03  0.00  0.00  0.19  0.00
  YS02001751YS02001754    1.00   0.00  0.00  0.00  0.93  0.00  0.00  0.07  0.02  0.00
  YS02001754YS02001757    1.00   0.00  0.00  0.00  1.00  0.00  0.00  0.00  0.24  0.00
  YS02001882YS02001884    1.00   0.05  0.00  0.00  0.95  0.00  0.00  0.00  0.00  0.00
  YS02001884YS02001887    1.00   0.02  0.01  0.00  0.97  0.00  0.00  0.00  0.00  0.00
  YS02001890YS02001895    1.00   0.00  0.05  0.00  0.95  0.00  0.00  0.00  0.00  0.00
  YS02001895YS02001898    1.00   0.05  0.00  0.00  0.94  0.00  0.01  0.00  0.00  0.00
  YS02001898YS02001901    1.00   0.05  0.00  0.00  0.95  0.00  0.00  0.00  0.02  0.00
  YS02001901YS02001904    1.00   0.05  0.00  0.00  0.95  0.00  0.00  0.00  0.00  0.00
  YS02001904YS02001907    1.00   0.00  0.05  0.00  0.95  0.00  0.00  0.00  0.00  0.00
  YS02001887YS02001890    1.00   0.00  0.00  0.00  0.99  0.00  0.01  0.00  0.00  0.00
  YS02001652YS02001649    1.00   0.00  0.00  0.00  1.00  0.00  0.00  0.00  0.22  0.00
  YS02001655YS02001652    1.00   0.00  0.00  0.00  0.93  0.00  0.00  0.07  0.02  0.00
  YS02001658YS02001655    1.00   0.00  0.04  0.00  0.92  0.03  0.00  0.00  0.08  0.00
  YS02001661YS02001658    1.00   0.04  0.00  0.00  0.90  0.05  0.00  0.00  0.07  0.00
  YS02001664YS02001661    1.00   0.03  0.00  0.00  0.90  0.06  0.00  0.00  0.35  0.00
  YSB1154YSB6556          1.00   0.03  0.00  0.00  0.97  0.00  0.00  0.00  0.02  0.00
  YSB1174YSB1171          1.00   0.01  0.01  0.00  0.98  0.00  0.00  0.00  0.00  0.00
  YSB1171HS02004479       1.00   0.01  0.00  0.00  0.99  0.00  0.00  0.00  0.13  0.00
  HS02004881HS02006253    1.00   0.01  0.00  0.00  0.76  0.00  0.00  0.22  0.51  0.00
  YS02001793JiankangQianchi    1.00   0.00  0.00  0.00  0.64  0.36  0.00  0.00  0.51  0.00
  YS02001757CaochengTiaoxuchi    1.00   0.00  0.08  0.00  0.92  0.00  0.00  0.00  0.00  0.00
  WSF200WS02003060        1.00   0.00  0.04  0.00  0.63  0.33  0.00  0.00  0.44  0.00
  1                       1.00   0.00  0.00  0.00  0.00  1.00  0.00  0.00  0.37  0.00
  
  
  *************************
  Conduit Surcharge Summary
  *************************
  
  ----------------------------------------------------------------------------
                                                           Hours        Hours 
                         --------- Hours Full --------   Above Full   Capacity
  Conduit                Both Ends  Upstream  Dnstream   Normal Flow   Limited
  ----------------------------------------------------------------------------
  WS02006229WS02006228        2.29      2.41      2.29      4.49         2.29
  WS02006256WS02006235        5.41      5.42      6.25      3.35         0.01
  WS02006253WS02006251        1.18      1.18      1.25      0.01         0.01
  WS02006252WS02006251        1.33      1.33      2.60      2.25         0.01
  WS02006251WS02006249        1.21      1.21      1.27      1.12         0.70
  WS02006249WS02006248        1.19      1.19      1.27      3.80         0.01
  WS02006248WS02006247        1.26      1.26      1.43      0.01         0.01
  WS02006247WS02006245        1.40      1.45      1.40      3.97         1.40
  WS02006245WS02006243        1.43      1.43      1.47      0.51         0.33
  WS02006243WS02006242        1.50      1.50      1.69      0.01         0.01
  WS02006242WS02006240        1.57      1.57      2.02      2.77         0.01
  WS02006240WS02006239        1.59      1.61      1.63      1.52         0.70
  WS02006239WS02006238        1.77      1.79      1.84      1.66         0.83
  WS02006238WS02006235        1.81      1.81      1.93      0.01         0.01
  WS02006235WS02006234        1.57      1.57      1.77      5.39         0.01
  WS02006234WS02006232        1.67      1.67      1.95      0.86         0.85
  WS02006232WS02006231        1.08      1.08      1.95      0.99         0.01
  WS02006231WS02006230        0.77      0.77      1.12      5.43         0.01
  WS02006230WS02006229        3.23      3.90      3.23      5.68         3.23
  WS02006228WS02006109        2.35      2.72      2.35      5.28         2.35
  WS02006112WS02006115        0.01      0.01      1.08      0.01         0.01
  WS02006111WS02006112        0.01      0.01      4.85      0.01         0.01
  WS02006110WS02006113        0.01      0.01      2.53      0.01         0.01
  WS02006109WS02006110        0.87      0.87      2.72      0.88         0.01
  WS02004405WS02004406        0.01      0.01      0.01      0.94         0.01
  WS02004404WS02004405        0.01      0.01      0.01      5.76         0.01
  WS02003072WS02003073        0.01      0.01      0.01      4.53         0.01
  YS02001759YS02001757        5.50      5.50      5.57      0.01         0.01
  YS02001762YS02001759        5.48      5.48      5.50      0.01         0.01
  YS02001765YS02001762        5.45      5.45      5.48      0.01         0.01
  YS02001770YS02001767        5.42      5.42      5.42      0.01         0.65
  YS02001774YS02001770        5.40      5.40      5.47      0.01         0.01
  YS02001779YS02001774        4.93      4.93      5.47      0.01         0.01
  YS02001649YS02001757        5.49      5.49      5.57      0.01         0.01
  YS02001767YS02001765        5.42      5.42      5.45      0.01         0.01
  YS02001784YS02001785        0.01      0.01      0.01      0.46         0.01
  YS02001788YS02001790        0.01      0.01      0.01      0.01         0.01
  YS02001790YS02001791        0.01      0.01      0.21      0.01         0.01
  YS02001791YS02001793        0.21      0.21      0.83      0.01         0.01
  YS02001629YS02163301        5.39      5.39      5.41      0.01         0.01
  YS02001619YS02001622        4.60      4.60      4.63      0.01         0.01
  YS02001622YS02001625        4.63      4.63      5.30      0.01         0.01
  YS02001625YS02001629        4.60      4.60      5.30      0.01         0.01
  YS02163301YS02001633        5.41      5.41      5.45      0.01         0.01
  YS02163601YS02164001        5.45      5.45      5.48      0.01         0.01
  YS02164001YS02001641        5.45      5.45      5.46      0.01         0.01
  YS02001641YS02001644        5.46      5.46      5.46      0.01         1.03
  YS02001647YS02001649        5.25      5.25      5.49      0.01         0.01
  YS02001907YS02006553        0.60      0.60      0.90      0.01         0.01
  YS02006558YS02006561        0.01      0.01      0.01      0.15         0.01
  YS02001633YS02163601        5.44      5.44      5.48      0.01         0.01
  YS02001644YS02001647        5.25      5.25      5.46      0.01         0.01
  YS02001745YS02001748        0.01      0.01      2.56      0.01         0.01
  YS02001748YS02001751        3.41      3.41      4.66      0.01         0.01
  YS02001751YS02001754        4.66      4.66      5.03      0.01         0.01
  YS02001754YS02001757        5.24      5.24      5.57      0.01         0.01
  YS02001652YS02001649        5.28      5.28      5.49      0.01         0.01
  YS02001655YS02001652        4.71      4.71      5.20      0.01         0.01
  YS02001658YS02001655        2.60      2.60      4.71      0.01         0.01
  YS02001661YS02001658        0.01      0.01      2.60      0.01         0.01
  HS02004881HS02006253        0.01      0.01      0.76      0.01         0.01
  YS02001793JiankangQianchi        0.68      0.68      2.98      0.01         0.01
  YS02001757CaochengTiaoxuchi        3.91      3.91      5.57      0.01         0.01
  
  
  ***************
  Pumping Summary
  ***************
  
  ---------------------------------------------------------------------------------------------------------
                                                  Min       Avg       Max     Total     Power    % Time Off
                        Percent   Number of      Flow      Flow      Flow    Volume     Usage    Pump Curve
  Pump                 Utilized   Start-Ups       LPS       LPS       LPS  10^6 ltr     Kw-hr    Low   High
  ---------------------------------------------------------------------------------------------------------
  CC-Pump-1               55.31           1      0.00    183.76    200.00     2.820      4.42    0.0    0.0
  CC-Pump-2               44.68           6      0.00     93.66    200.00     1.440      2.47    0.0    0.0
  JK-Pump-1               48.93           5      0.00    173.54    300.00     2.309     42.50    0.0    0.0
  JK-Pump-2               44.68           5      0.00    219.42    683.00     3.105     59.22    0.0   96.7
  XR-Pump-1               89.36           3      0.00     88.14     95.00     2.280     46.20    0.0    0.0
  XR-Pump-2               89.36           3      0.00     88.14     95.00     2.280     46.20    0.0    0.0
  XR-Pump-3               65.95           3      0.00     82.71     95.00     1.568     31.84    0.0    0.0
  XR-Pump-4               65.95           3      0.00     82.71     95.00     1.568     31.84    0.0    0.0
  
  
  ***************************
  Link Pollutant Load Summary
  ***************************
  
  ------------------------------------------------------------------------------------------
                                 COD            SS            TN            TP         NH4-N
  Link                            kg            kg            kg            kg            kg
  ------------------------------------------------------------------------------------------
  WS02003066WSF200           471.465       808.656        15.491         1.479         8.510
  WS02006287WS02006284       132.483       232.344         6.749         0.758         3.983
  WS02006284WS02006280       132.906       233.028         6.788         0.763         4.007
  WS02006280WS02006229       132.891       232.999         6.788         0.763         4.007
  WS02006229WS02006228       479.611       821.960        15.213         1.426         8.292
  WS02006256WS02006235        75.452       127.440         2.181         0.194         1.172
  WS02006253WS02006251        24.621        44.622         0.663         0.056         0.346
  WS02006252WS02006251       271.471       458.604         6.150         0.454         3.050
  WS02006251WS02006249       288.530       490.482         6.660         0.500         3.323
  WS02006249WS02006248       278.010       472.678         6.416         0.481         3.201
  WS02006248WS02006247       277.856       472.453         6.414         0.481         3.200
  WS02006247WS02006245       277.486       471.845         6.405         0.481         3.196
  WS02006245WS02006243       277.126       471.320         6.392         0.479         3.188
  WS02006243WS02006242       277.656       472.326         6.406         0.481         3.196
  WS02006242WS02006240       278.179       473.385         6.416         0.481         3.201
  WS02006240WS02006239       279.216       475.338         6.436         0.483         3.211
  WS02006239WS02006238       280.657       477.799         6.486         0.488         3.239
  WS02006238WS02006235       281.154       478.482         6.508         0.490         3.252
  WS02006235WS02006234       349.893       594.222         8.511         0.669         4.330
  WS02006234WS02006232       349.505       593.583         8.507         0.669         4.329
  WS02006232WS02006231       348.729       592.278         8.485         0.667         4.317
  WS02006231WS02006230       348.143       591.296         8.473         0.667         4.311
  WS02006230WS02006229       348.010       591.168         8.475         0.667         4.313
  WS02006228WS02006109       478.712       820.495        15.189         1.424         8.280
  WS02006116WS02004401       484.049       829.510        15.844         1.509         8.696
  WS02006115WS02006116       485.218       831.431        15.880         1.512         8.715
  WS02006113WS02006111       484.588       829.779        15.908         1.516         8.735
  WS02006112WS02006115       486.396       833.397        15.928         1.517         8.743
  WS02006111WS02006112       484.165       829.074        15.899         1.515         8.731
  WS02006110WS02006113       485.131       830.688        15.931         1.518         8.748
  WS02006109WS02006110       486.292       832.619        15.981         1.524         8.778
  WS02004411WS02004412       475.109       814.717        15.627         1.493         8.586
  WS02004401WS02004402       482.810       827.452        15.797         1.504         8.669
  WS02004413WS02003067       472.154       809.781        15.510         1.481         8.520
  WS02004412WS02004413       473.784       812.520        15.586         1.489         8.564
  WS02004410WS02004411       476.144       816.425        15.658         1.495         8.603
  WS02004409WS02004410       477.164       818.116        15.692         1.499         8.622
  WS02004407WS02004409       477.971       819.435        15.713         1.500         8.632
  WS02004406WS02004407       478.178       819.747        15.713         1.500         8.631
  WS02004405WS02004406       479.960       822.687        15.796         1.509         8.680
  WS02004404WS02004405       481.003       824.402        15.799         1.508         8.678
  WS02004403WS02004404       480.601       823.799        15.718         1.497         8.625
  WS02004402WS02004403       481.661       825.560        15.759         1.501         8.648
  WS02004139WS02001211      1247.992      2004.814       115.511        14.356        71.946
  WS02004138WS02004139      1250.953      2009.589       115.771        14.388        72.107
  WS02003067WS02003066       471.635       808.940        15.498         1.480         8.514
  WS02001213WS02003059      1284.066      2062.475       119.009        14.793        74.134
  WS02001212WS02001213      1292.279      2075.649       119.779        14.889        74.614
  WS02001211WS02001212      1293.124      2076.997       119.862        14.900        74.666
  WS02003072WS02003073      1855.772      3031.292       144.348        17.507        88.808
  WS02003069WS02003072      1860.058      3038.220       144.708        17.551        89.031
  WS02003060WS02003069      1861.592      3040.738       144.787        17.560        89.078
  WS02003059WS02003060      1281.294      2058.084       118.701        14.754        73.940
  HS02004901HS02004770         3.712         6.842         0.071         0.005         0.033
  HS02004876HS02004881        14.381        26.823         0.389         0.032         0.202
  HS02004870HS02004876        11.006        20.415         0.333         0.029         0.176
  HS02004842HS02004848         2.005         3.582         0.044         0.003         0.020
  HS02004837HS02004842         6.624        10.932         0.512         0.062         0.314
  HS02004830HS02004837        51.332        84.423         4.285         0.527         2.654
  HS02004824HS02004830        52.082        85.626         4.356         0.536         2.699
  HS02004817HS02004824        60.016       100.378         4.547         0.549         2.796
  HS02004770HS02004777        14.268        26.520         0.305         0.020         0.139
  HS02004799HS02004480        56.596       100.580         2.220         0.231         1.249
  HS02004792HS02004799        52.235        91.974         2.186         0.232         1.242
  HS02004788HS02004792        33.066        57.956         1.673         0.185         0.976
  HS02004785HS02004788        15.768        28.932         0.457         0.039         0.235
  HS02004777HS02004785        15.226        28.054         0.408         0.033         0.204
  HS02004480HS02004478        69.095       124.438         2.387         0.240         1.321
  HS02004479HS02004480        16.761        30.646         0.573         0.060         0.325
  HS02004862HS02004870         8.212        14.908         0.277         0.026         0.150
  HS02004848HS02004852         2.552         4.617         0.055         0.004         0.025
  HS02004856HS02004862         4.846         9.093         0.099         0.006         0.046
  HS02004852HS02004856         2.548         4.610         0.055         0.004         0.025
  HS02004802HS02004478        63.700       108.422         4.389         0.522         2.679
  HS02004478WS02006287       132.665       232.647         6.764         0.760         3.992
  HS02004817HS02004807        58.651        98.195         4.418         0.533         2.715
  HS02004807HS02004802        64.332       109.427         4.450         0.530         2.717
  YS02001759YS02001757       147.031       250.743         3.267         0.231         1.626
  YS02001762YS02001759        77.730       133.570         1.907         0.141         0.970
  YS02001765YS02001762        77.118       132.426         1.918         0.143         0.980
  YS02001770YS02001767        74.658       128.413         1.619         0.103         0.789
  YS02001774YS02001770         4.583         7.851         0.114         0.008         0.058
  YS02001779YS02001774         3.045         5.082         0.147         0.016         0.086
  YS02001649YS02001757       216.522       357.389         4.706         0.345         2.276
  YS02001767YS02001765        77.074       132.288         1.931         0.144         0.988
  YS02006561YS02001783       304.734       515.925         8.018         0.674         4.210
  YS02001783YS02001784       304.651       515.801         8.015         0.673         4.208
  YS02001784YS02001785       312.005       527.581         8.728         0.763         4.654
  YS02001788YS02001790       313.051       529.277         8.836         0.776         4.721
  YS02001790YS02001791       314.495       531.613         8.987         0.795         4.816
  YS02001791YS02001793       314.554       531.700         8.989         0.796         4.818
  YS02001910YS02001907       104.752       174.091         3.850         0.364         2.147
  YS02001786YS02001788       312.224       527.940         8.756         0.766         4.672
  YS02001915YS02001910       104.660       173.899         3.803         0.357         2.116
  YS02001918YS02001915        53.861        85.976         2.669         0.295         1.574
  YS02001923YS02001920        33.860        53.985         0.726         0.051         0.358
  YS02001926YS02001923        33.495        53.398         0.687         0.046         0.334
  YS02001929YS02001926        33.228        52.960         0.655         0.042         0.314
  YS02001920YS02001918        53.792        85.883         2.644         0.291         1.558
  YS02001629YS02163301        37.953        62.869         0.843         0.053         0.390
  YS02001619YS02001622        41.226        67.963         0.919         0.057         0.424
  YS02001622YS02001625        40.394        66.734         0.898         0.056         0.414
  YS02001625YS02001629        39.307        65.128         0.872         0.054         0.403
  YS02163301YS02001633        38.255        63.406         0.847         0.053         0.393
  YS02163601YS02164001       106.811       175.646         2.311         0.164         1.115
  YS02164001YS02001641       106.463       175.086         2.292         0.162         1.104
  YS02001641YS02001644       107.188       176.287         2.297         0.162         1.105
  YS02001647YS02001649       171.694       281.642         3.534         0.249         1.691
  YS02006553YS02006556       221.048       372.966         6.153         0.540         3.289
  YS02006556YS02006558       220.997       372.865         6.122         0.535         3.268
  YSB6556YSB1171               8.855        16.342         0.236         0.023         0.128
  YS02001907YS02006553       221.032       372.961         6.150         0.539         3.287
  YS02006558YS02006561       304.700       515.858         8.016         0.673         4.208
  YS02001633YS02163601       107.444       176.588         2.294         0.160         1.101
  YS02001644YS02001647       172.569       282.958         3.553         0.250         1.701
  YS02001745YS02001748        58.565        98.989         1.338         0.085         0.656
  YS02001748YS02001751        63.458       106.938         1.817         0.145         0.956
  YS02001751YS02001754        60.906       102.600         1.767         0.143         0.933
  YS02001754YS02001757        61.880       104.154         1.938         0.166         1.043
  YS02001882YS02001884         0.771         1.243         0.021         0.002         0.011
  YS02001884YS02001887         2.815         4.704         0.068         0.006         0.036
  YS02001890YS02001895       117.446       200.561         2.329         0.178         1.155
  YS02001895YS02001898       117.305       200.359         2.323         0.177         1.152
  YS02001898YS02001901       117.184       200.185         2.320         0.177         1.150
  YS02001901YS02001904       117.210       200.261         2.338         0.180         1.162
  YS02001904YS02001907       117.877       201.370         2.423         0.190         1.216
  YS02001887YS02001890       118.294       201.871         2.392         0.185         1.193
  YS02001652YS02001649        46.595        78.485         1.200         0.097         0.595
  YS02001655YS02001652        47.175        79.411         1.217         0.098         0.603
  YS02001658YS02001655        45.526        76.807         0.983         0.068         0.453
  YS02001661YS02001658        47.854        80.668         1.017         0.069         0.465
  YS02001664YS02001661        58.956        97.933         1.276         0.086         0.581
  YSB1154YSB6556               8.363        15.558         0.176         0.015         0.090
  YSB1174YSB1171               6.056        11.331         0.160         0.015         0.086
  YSB1171HS02004479           16.673        30.514         0.564         0.059         0.319
  HS02004881HS02006253        16.175        30.317         0.415         0.033         0.213
  YS02001793JiankangQianchi       315.863       533.820         9.053         0.803         4.855
  YS02001757CaochengTiaoxuchi       420.103       704.677         9.586         0.705         4.753
  WSF200WS02003060           471.322       808.426        15.499         1.480         8.516
  1                         1864.676      3045.492       145.337        17.633        89.432
  CC-Pump-1                  179.173       302.540         4.062         0.300         2.014
  CC-Pump-2                   92.329       156.115         2.089         0.154         1.036
  JK-Pump-1                   74.753       125.613         2.164         0.192         1.162
  JK-Pump-2                  117.246       199.813         3.277         0.288         1.750
  XR-Pump-1                  390.470       626.977        36.285         4.512        22.609
  XR-Pump-2                  390.470       626.977        36.285         4.512        22.609
  XR-Pump-3                  236.919       380.888        21.777         2.703        13.555
  XR-Pump-4                  236.919       380.888        21.777         2.703        13.555
  

  Analysis begun on:  Sun Jul 11 15:38:12 2021
  Analysis ended on:  Sun Jul 11 15:38:15 2021
  Total elapsed time: 00:00:03