
  EPA STORM WATER MANAGEMENT MODEL - VERSION 5.1 (Build 5.3.0.dev0)
  --------------------------------------------------------------

  WARNING 04: minimum elevation drop used for Conduit WS02004404WS02004405
  WARNING 03: negative offset ignored for Link YS02001904YS02001907
  
  *********************************************************
  NOTE: The summary statistics displayed in this report are
  based on results found at every computational time step,  
  not just on results from each reporting time step.
  *********************************************************
  
  ****************
  Analysis Options
  ****************
  Flow Units ............... LPS
  Process Models:
    Rainfall/Runoff ........ YES
    RDII ................... NO
    Snowmelt ............... NO
    Groundwater ............ NO
    Flow Routing ........... YES
    Ponding Allowed ........ NO
    Water Quality .......... YES
  Infiltration Method ...... HORTON
  Flow Routing Method ...... DYNWAVE
  Surcharge Method ......... EXTRAN
  Starting Date ............ 08/28/2015 08:00:00
  Ending Date .............. 08/28/2015 15:50:00
  Antecedent Dry Days ...... 8.0
  Report Time Step ......... 00:01:00
  Wet Time Step ............ 00:01:00
  Dry Time Step ............ 00:01:00
  Routing Time Step ........ 5.00 sec
  Variable Time Step ....... YES
  Maximum Trials ........... 8
  Number of Threads ........ 4
  Head Tolerance ........... 0.001500 m
  
  
  **************************        Volume         Depth
  Runoff Quantity Continuity     hectare-m            mm
  **************************     ---------       -------
  Total Precipitation ......         2.372         5.192
  Evaporation Loss .........         0.000         0.000
  Infiltration Loss ........         0.524         1.148
  Surface Runoff ...........         1.347         2.949
  Final Storage ............         0.501         1.096
  Continuity Error (%) .....        -0.022
  
  
  **************************           COD            SS            TN            TP         NH4-N
  Runoff Quality Continuity             kg            kg            kg            kg            kg
  **************************    ----------    ----------    ----------    ----------    ----------
  Initial Buildup ..........     41378.656     70582.865      1804.177       168.684      1032.807
  Surface Buildup ..........        14.108        17.594         2.944         0.272         1.743
  Wet Deposition ...........         0.000         0.000         0.000         0.000         0.000
  Sweeping Removal .........         0.000         0.000         0.000         0.000         0.000
  Infiltration Loss ........        23.108        40.046         0.463         0.031         0.217
  BMP Removal ..............         0.000         0.000         0.000         0.000         0.000
  Surface Runoff ...........       760.789      1281.195        15.550         1.002         7.321
  Remaining Buildup ........     40608.624     69278.813      1791.102       167.923      1027.010
  Continuity Error (%) .....         0.001         0.001         0.000         0.000         0.000
  
  
  **************************        Volume        Volume
  Flow Routing Continuity        hectare-m      10^6 ltr
  **************************     ---------     ---------
  Dry Weather Inflow .......         0.616         6.165
  Wet Weather Inflow .......         1.346        13.464
  Groundwater Inflow .......         0.000         0.000
  RDII Inflow ..............         0.000         0.000
  External Inflow ..........         0.102         1.024
  External Outflow .........         1.587        15.868
  Flooding Loss ............         0.216         2.158
  Evaporation Loss .........         0.000         0.000
  Exfiltration Loss ........         0.000         0.000
  Initial Stored Volume ....         0.076         0.761
  Final Stored Volume ......         0.460         4.601
  Continuity Error (%) .....        -5.675
  
  
  **************************           COD            SS            TN            TP         NH4-N
  Quality Routing Continuity            kg            kg            kg            kg            kg
  **************************    ----------    ----------    ----------    ----------    ----------
  Dry Weather Inflow .......      1541.201      2465.922       147.955        18.494        92.472
  Wet Weather Inflow .......       760.513      1280.769        15.543         1.002         7.318
  Groundwater Inflow .......         0.000         0.000         0.000         0.000         0.000
  RDII Inflow ..............         0.000         0.000         0.000         0.000         0.000
  External Inflow ..........       183.418       293.469        17.608         2.201        11.005
  External Outflow .........      1937.723      3145.850       157.240        19.190        97.055
  Flooding Loss ............        93.081       157.892         2.561         0.223         1.362
  Exfiltration Loss ........         0.000         0.000         0.000         0.000         0.000
  Mass Reacted .............         0.000         0.000         0.000         0.000         0.000
  Initial Stored Mass ......         0.000         0.000         0.000         0.000         0.000
  Final Stored Mass ........       279.605       451.133        11.500         1.172         6.531
  Continuity Error (%) .....         7.031         7.061         5.415         5.124         5.278
  
  
  *************************
  Highest Continuity Errors
  *************************
  Node YS02001774 (42.17%)
  Node HS02004842 (26.21%)
  Node JK-storage (-26.00%)
  Node YS02001884 (20.72%)
  Node YSB1171 (6.26%)
  
  
  ***************************
  Time-Step Critical Elements
  ***************************
  Link WS02006252WS02006251 (70.72%)
  Link WS02006280WS02006229 (8.64%)
  Link YS02001793JiankangQianchi (6.54%)
  Link WS02006238WS02006235 (6.48%)
  
  
  ********************************
  Highest Flow Instability Indexes
  ********************************
  Link WS02006113WS02006111 (49)
  Link YS02001619YS02001622 (23)
  Link WS02006111WS02006112 (23)
  Link YS02001779YS02001774 (21)
  Link YS02001774YS02001770 (18)
  
  
  *************************
  Routing Time Step Summary
  *************************
  Minimum Time Step           :     0.50 sec
  Average Time Step           :     1.18 sec
  Maximum Time Step           :     5.00 sec
  Percent in Steady State     :    -0.00
  Average Iterations per Step :     4.19
  Percent Not Converging      :    23.85
  
  
  ***************************
  Subcatchment Runoff Summary
  ***************************
  
  ------------------------------------------------------------------------------------------------------------------------------
                            Total      Total      Total      Total     Imperv       Perv      Total       Total     Peak  Runoff
                           Precip      Runon       Evap      Infil     Runoff     Runoff     Runoff      Runoff   Runoff   Coeff
  Subcatchment                 mm         mm         mm         mm         mm         mm         mm    10^6 ltr      LPS
  ------------------------------------------------------------------------------------------------------------------------------
  sub0                       5.19       0.00       0.00       0.36       4.78       0.00       4.78        0.00     1.48   0.921
  sub1                       5.19       0.00       0.00       0.57       4.53       0.00       4.53        0.03     8.53   0.873
  sub2                       5.19       0.00       0.00       1.92       3.19       0.00       3.19        0.03     7.64   0.615
  sub3                       5.19       0.00       0.00       1.92       3.16       0.00       3.16        0.07    15.89   0.608
  sub4                       5.19       0.00       0.00       0.57       4.40       0.00       4.40        0.09    17.93   0.847
  sub5                       5.19       0.00       0.00       0.36       4.74       0.00       4.74        0.05    15.18   0.913
  sub7                       5.19       0.00       0.00       0.47       4.66       0.00       4.66        0.02     5.17   0.898
  sub8                       5.19       0.00       0.00       0.47       4.66       0.00       4.66        0.03     9.26   0.897
  sub9                       5.19       0.00       0.00       0.47       4.65       0.00       4.65        0.02     6.89   0.896
  sub10                      5.19       0.00       0.00       0.42       4.69       0.00       4.69        0.05    15.07   0.904
  sub11                      5.19       0.00       0.00       0.42       4.71       0.00       4.71        0.05    17.35   0.907
  sub12                      5.19       0.00       0.00       0.67       4.47       0.00       4.47        0.04    14.06   0.861
  sub14                      5.19       0.00       0.00       0.47       4.65       0.00       4.65        0.04    13.49   0.896
  sub15                      5.19       0.00       0.00       1.56       3.58       0.00       3.58        0.06    18.38   0.689
  sub16                      5.19       0.00       0.00       1.71       3.44       0.00       3.44        0.04    12.53   0.662
  sub17                      5.19       0.00       0.00       1.66       3.49       0.00       3.49        0.03    10.21   0.672
  sub22                      5.19       0.00       0.00       2.23       2.92       0.00       2.92        0.18    59.19   0.562
  sub23                      5.19       0.00       0.00       1.92       3.23       0.00       3.23        0.15    50.18   0.622
  sub60                      5.19       0.00       0.00       0.62       3.24       0.00       3.24        0.98    89.56   0.623
  sub61                      5.19       0.00       0.00       0.88       3.43       0.00       3.43        1.06   113.28   0.661
  sub62                      5.19       0.00       0.00       0.42       3.69       0.00       3.69        1.13   115.50   0.711
  sub63                      5.19       0.00       0.00       1.51       3.05       0.00       3.05        0.92   106.06   0.587
  sub64                      5.19       0.00       0.00       0.78       3.09       0.00       3.09        0.94    85.02   0.596
  sub65                      5.19       0.00       0.00       0.67       3.14       0.00       3.14        0.96    86.23   0.604
  sub66                      5.19       0.00       0.00       1.51       2.69       0.00       2.69        0.83    78.12   0.519
  sub67                      5.19       0.00       0.00       0.42       4.03       0.00       4.03        1.24   149.33   0.776
  sub68                      5.19       0.00       0.00       0.73       3.65       0.00       3.65        1.12   125.50   0.702
  sub69                      5.19       0.00       0.00       0.78       3.91       0.00       3.91        0.91   125.52   0.753
  sub70                      5.19       3.99       0.00       3.12       4.88       0.00       4.88        1.12   101.47   0.531
  sub71                      5.19       0.00       0.00       0.42       3.54       0.00       3.54        0.84    80.38   0.682
  sub72                      5.19       0.00       0.00       0.36       2.54       0.00       2.54        0.52    38.30   0.489
  1                          5.19       4.75       0.00       1.32       5.02       0.74       5.76        1.35    97.03   0.580
  2                          5.19       0.00       0.00       2.91       1.18       0.24       1.42        0.57    76.81   0.273
  
  
  ****************************
  Subcatchment Washoff Summary
  ****************************
  
  ------------------------------------------------------------------------------------------
                                 COD            SS            TN            TP         NH4-N
  Subcatchment                    kg            kg            kg            kg            kg
  ------------------------------------------------------------------------------------------
  sub0                         0.744         1.376         0.012         0.001         0.006
  sub1                         3.009         5.620         0.057         0.004         0.027
  sub2                         1.716         3.082         0.039         0.002         0.017
  sub3                         4.128         7.304         0.091         0.006         0.041
  sub4                         6.556        12.124         0.136         0.008         0.065
  sub5                         6.914        12.755         0.121         0.009         0.058
  sub7                         1.607         3.068         0.030         0.002         0.015
  sub8                         2.428         4.724         0.050         0.003         0.024
  sub9                         2.051         3.936         0.040         0.002         0.019
  sub10                        5.759        10.773         0.105         0.007         0.051
  sub11                        5.748        10.918         0.108         0.007         0.052
  sub12                        4.810         8.996         0.086         0.006         0.041
  sub14                        4.344         8.258         0.083         0.005         0.040
  sub15                        5.059         9.153         0.100         0.007         0.046
  sub16                        3.230         5.858         0.063         0.005         0.029
  sub17                        2.951         5.301         0.055         0.004         0.026
  sub22                       14.894        26.378         0.291         0.021         0.134
  sub23                        9.231        16.984         0.207         0.013         0.094
  sub60                       48.900        81.647         1.052         0.060         0.502
  sub61                       62.239       103.708         1.217         0.078         0.583
  sub62                       65.728       111.531         1.369         0.081         0.654
  sub63                       46.826        77.122         1.022         0.068         0.465
  sub64                       57.803        92.843         1.117         0.078         0.528
  sub65                       59.271        95.619         1.155         0.078         0.548
  sub66                       35.156        57.158         0.796         0.049         0.366
  sub67                       98.938       166.904         1.808         0.127         0.869
  sub68                       70.255       118.579         1.422         0.090         0.674
  sub69                       66.301       113.908         1.294         0.086         0.613
  sub70                       99.624       170.693         2.117         0.139         0.975
  sub71                       43.522        74.411         0.972         0.052         0.463
  sub72                       27.896        43.916         0.555         0.036         0.266
  1                           51.128        88.293         1.127         0.075         0.511
  2                            7.950        12.855         0.264         0.016         0.110
  ------------------------------------------------------------------------------------------
  System                     926.714      1565.796        18.961         1.228         8.910
  
  
  ******************
  Node Depth Summary
  ******************
  
  ---------------------------------------------------------------------------------
                                 Average  Maximum  Maximum  Time of Max    Reported
                                   Depth    Depth      HGL   Occurrence   Max Depth
  Node                 Type       Meters   Meters   Meters  days hr:min      Meters
  ---------------------------------------------------------------------------------
  WS02001211           JUNCTION     0.71     0.79     5.63     0  06:44        0.79
  WS02001212           JUNCTION     0.43     0.50     5.57     0  06:43        0.50
  WS02001213           JUNCTION     0.67     0.75     5.52     0  04:31        0.75
  WS02003069           JUNCTION     0.47     0.58     5.16     0  04:32        0.58
  WS02003072           JUNCTION     0.54     0.64     5.01     0  04:32        0.64
  WS02003073           JUNCTION     0.32     0.39     4.46     0  04:33        0.39
  WS02003060           JUNCTION     0.42     0.51     5.44     0  04:31        0.51
  WS02003066           JUNCTION     0.23     0.30     5.85     0  04:57        0.30
  WS02003059           JUNCTION     0.72     0.81     5.49     0  04:31        0.81
  WS02003067           JUNCTION     0.58     0.70     6.02     0  04:57        0.70
  WS02004401           JUNCTION     0.68     0.86     6.86     0  04:55        0.86
  WS02004402           JUNCTION     0.71     0.88     6.84     0  04:55        0.88
  WS02004403           JUNCTION     0.73     0.90     6.83     0  04:55        0.90
  WS02004404           JUNCTION     0.81     0.97     6.82     0  04:55        0.97
  WS02004406           JUNCTION     0.81     0.96     6.79     0  04:55        0.96
  WS02004409           JUNCTION     0.50     0.67     6.44     0  04:56        0.67
  WS02004410           JUNCTION     0.52     0.69     6.41     0  04:57        0.69
  WS02004411           JUNCTION     0.53     0.69     6.37     0  04:57        0.69
  WS02004412           JUNCTION     0.55     0.70     6.34     0  04:57        0.70
  WS02004413           JUNCTION     0.71     0.86     6.33     0  04:57        0.86
  WS02004405           JUNCTION     0.80     0.96     6.81     0  04:55        0.96
  WS02006109           JUNCTION     0.75     1.00     7.62     0  04:21        0.99
  WS02006110           JUNCTION     0.75     0.93     7.52     0  04:21        0.93
  WS02006111           JUNCTION     0.22     0.29     7.00     0  04:21        0.29
  WS02006112           JUNCTION     0.85     1.07     6.95     0  04:54        1.06
  WS02006113           JUNCTION     0.34     0.46     7.36     0  04:21        0.46
  WS02006115           JUNCTION     0.57     0.76     6.90     0  04:54        0.76
  WS02006116           JUNCTION     0.65     0.84     6.88     0  04:54        0.84
  WS02006230           JUNCTION     0.73     1.13     7.88     0  04:20        1.13
  WS02006231           JUNCTION     0.49     0.88     8.00     0  04:20        0.88
  WS02006232           JUNCTION     0.63     1.08     8.12     0  04:21        1.06
  WS02006234           JUNCTION     0.56     1.09     8.24     0  04:21        1.08
  WS02006235           JUNCTION     0.60     1.18     8.34     0  04:21        1.16
  WS02006238           JUNCTION     0.63     1.20     8.35     0  04:21        1.19
  WS02006240           JUNCTION     0.54     1.15     8.44     0  04:48        1.14
  WS02006242           JUNCTION     0.60     1.23     8.50     0  04:48        1.22
  WS02006243           JUNCTION     0.48     1.15     8.57     0  04:48        1.12
  WS02006245           JUNCTION     0.46     1.13     8.62     0  04:48        1.11
  WS02006247           JUNCTION     0.48     1.15     8.65     0  04:48        1.13
  WS02006248           JUNCTION     0.42     1.08     8.67     0  04:48        1.07
  WS02006249           JUNCTION     0.44     1.09     8.69     0  04:20        1.09
  WS02006239           JUNCTION     0.59     1.18     8.39     0  04:21        1.17
  WS02006251           JUNCTION     0.42     1.29     8.96     0  04:48        1.14
  WS02006252           JUNCTION     0.32     0.82     9.06     0  04:48        0.69
  WS02006253           JUNCTION     0.45     1.40     9.04     0  04:48        1.18
  WS02006256           JUNCTION     1.38     2.35     9.28     0  00:12        2.35
  WS02004138           JUNCTION     0.16     0.20     7.45     0  00:00        0.19
  WS02004139           JUNCTION     0.65     0.74     5.65     0  06:44        0.74
  WS02004407           JUNCTION     0.22     0.30     6.61     0  04:56        0.30
  WS02006228           JUNCTION     0.75     1.04     7.69     0  04:20        1.04
  WS02006229           JUNCTION     0.72     1.04     7.73     0  04:21        1.04
  WS02006280           JUNCTION     0.05     0.15     8.42     0  02:13        0.15
  WS02006284           JUNCTION     0.34     0.49     8.89     0  02:13        0.49
  WS02006287           JUNCTION     0.07     0.23     9.18     0  02:13        0.23
  WSF200               JUNCTION     0.22     0.31     5.55     0  04:57        0.31
  HS02004901           JUNCTION     0.10     0.24    10.06     0  02:11        0.24
  HS02004881           JUNCTION     0.00     0.03     9.06     0  02:12        0.03
  HS02004876           JUNCTION     0.03     0.10     9.13     0  02:10        0.10
  HS02004870           JUNCTION     0.01     0.04     9.33     0  02:13        0.04
  HS02004862           JUNCTION     0.01     0.05     9.44     0  02:14        0.05
  HS02004856           JUNCTION     0.07     0.11     9.53     0  02:13        0.11
  HS02004852           JUNCTION     0.00     0.03     9.54     0  02:14        0.03
  HS02004848           JUNCTION     0.00     0.03     9.63     0  02:12        0.03
  HS02004842           JUNCTION     0.33     0.36     9.63     0  02:12        0.36
  HS02004837           JUNCTION     0.02     0.05     9.63     0  02:12        0.05
  HS02004830           JUNCTION     0.03     0.06     9.53     0  02:13        0.06
  HS02004824           JUNCTION     0.02     0.04     9.45     0  02:15        0.04
  HS02004817           JUNCTION     0.42     0.54     9.38     0  02:13        0.54
  HS02004807           JUNCTION     0.10     0.21     9.38     0  02:13        0.21
  HS02004802           JUNCTION     0.14     0.25     9.38     0  02:13        0.25
  HS02004799           JUNCTION     0.09     0.27     9.48     0  02:11        0.27
  HS02004792           JUNCTION     0.02     0.11     9.63     0  02:11        0.11
  HS02004788           JUNCTION     0.01     0.08     9.98     0  02:12        0.08
  HS02004785           JUNCTION     0.03     0.14    10.04     0  02:11        0.14
  HS02004777           JUNCTION     0.12     0.26    10.06     0  02:11        0.26
  HS02004770           JUNCTION     0.09     0.23    10.06     0  02:11        0.23
  HS02004480           JUNCTION     0.05     0.21     9.45     0  02:11        0.21
  HS02004479           JUNCTION     0.09     0.25     9.45     0  02:12        0.25
  HS02004478           JUNCTION     0.04     0.14     9.36     0  02:13        0.14
  YS02001745           JUNCTION     0.51     0.74     8.25     0  04:41        0.74
  YS02001748           JUNCTION     0.91     1.18     8.26     0  04:44        1.16
  YS02001751           JUNCTION     1.09     1.39     8.27     0  04:41        1.36
  YS02001754           JUNCTION     1.34     1.67     8.28     0  04:43        1.64
  YS02001762           JUNCTION     1.53     1.93     8.33     0  04:20        1.87
  YS02001765           JUNCTION     1.49     1.89     8.34     0  04:20        1.82
  YS02001767           JUNCTION     1.45     1.87     8.36     0  04:20        1.79
  YS02001770           JUNCTION     1.45     1.88     8.38     0  04:20        1.79
  YS02001774           JUNCTION     1.51     1.95     8.38     0  04:20        1.86
  YS02001779           JUNCTION     1.27     1.68     8.37     0  04:20        1.60
  YS02001882           JUNCTION     0.27     0.50     7.22     0  02:39        0.50
  YS02001884           JUNCTION     0.37     0.60     7.22     0  02:39        0.60
  YS02001759           JUNCTION     1.57     1.94     8.31     0  04:20        1.90
  YS02001887           JUNCTION     0.44     0.68     7.22     0  02:39        0.68
  YS02001890           JUNCTION     0.47     0.71     7.21     0  02:40        0.71
  YS02001898           JUNCTION     0.24     0.46     7.20     0  02:42        0.46
  YS02001901           JUNCTION     0.36     0.59     7.20     0  02:45        0.59
  YS02001904           JUNCTION     0.34     0.56     7.19     0  02:42        0.56
  YS02001907           JUNCTION     0.67     0.91     7.20     0  02:43        0.91
  YS02001910           JUNCTION     0.46     0.69     7.20     0  02:43        0.69
  YS02001915           JUNCTION     0.26     0.48     7.20     0  02:44        0.48
  YS02001918           JUNCTION     0.08     0.13     7.19     0  02:42        0.13
  YS02001619           JUNCTION     1.05     1.52     8.45     0  04:19        1.46
  YS02001629           JUNCTION     1.40     1.85     8.40     0  04:19        1.83
  YS02001641           JUNCTION     1.50     1.91     8.35     0  04:48        1.88
  YS02001644           JUNCTION     1.51     1.90     8.33     0  04:20        1.87
  YS02001652           JUNCTION     1.35     1.72     8.32     0  04:14        1.68
  YS02001655           JUNCTION     1.12     1.50     8.35     0  04:16        1.44
  YS02001920           JUNCTION     0.18     0.22     7.23     0  02:56        0.22
  YS02001923           JUNCTION     0.07     0.09     7.35     0  03:01        0.09
  YS02001926           JUNCTION     0.14     0.19     7.63     0  03:01        0.19
  YS02001929           JUNCTION     0.07     0.09     7.79     0  03:01        0.09
  YS02001658           JUNCTION     0.85     1.32     8.46     0  04:16        1.15
  YS02001661           JUNCTION     0.62     0.91     8.32     0  04:42        0.90
  YS02001664           JUNCTION     0.17     0.42     8.34     0  04:41        0.41
  YS02001622           JUNCTION     1.07     1.53     8.44     0  04:19        1.48
  YS02001633           JUNCTION     1.49     1.94     8.40     0  04:19        1.91
  YS02001649           JUNCTION     1.54     1.91     8.30     0  04:41        1.89
  YS02001757           JUNCTION     1.67     2.02     8.28     0  04:41        2.00
  YS02001895           JUNCTION     0.24     0.46     7.21     0  02:43        0.46
  YS02001625           JUNCTION     1.35     1.78     8.38     0  04:19        1.78
  YS02163301           JUNCTION     1.43     1.89     8.41     0  04:19        1.86
  YS02163601           JUNCTION     1.54     1.97     8.37     0  04:48        1.95
  YS02164001           JUNCTION     1.48     1.90     8.36     0  04:48        1.87
  YS02001647           JUNCTION     1.34     1.70     8.31     0  04:20        1.67
  YSB1154              JUNCTION     0.23     0.40     9.46     0  02:12        0.40
  YSB6556              JUNCTION     0.12     0.29     9.45     0  02:11        0.29
  YSB1174              JUNCTION     0.18     0.35     9.45     0  02:11        0.35
  YSB1171              JUNCTION     0.38     0.55     9.45     0  02:12        0.55
  YS02006553           JUNCTION     0.68     0.91     7.19     0  02:43        0.91
  YS02006561           JUNCTION     0.13     0.25     6.91     0  02:48        0.25
  YS02006556           JUNCTION     0.65     0.88     7.19     0  02:50        0.88
  YS02006558           JUNCTION     0.69     0.92     7.19     0  02:48        0.92
  YS02001783           JUNCTION     0.23     0.61     6.75     0  03:08        0.60
  YS02001784           JUNCTION     0.26     0.66     6.73     0  03:09        0.66
  YS02001786           JUNCTION     0.23     0.68     6.71     0  03:09        0.67
  YS02001788           JUNCTION     0.16     0.70     6.68     0  03:09        0.70
  YS02001790           JUNCTION     0.20     1.02     6.67     0  03:05        1.01
  YS02001791           JUNCTION     0.14     1.16     6.63     0  03:09        1.15
  YS02001793           JUNCTION     0.12     1.78     6.62     0  03:07        1.78
  WSC                  OUTFALL      0.32     0.39     1.06     0  04:33        0.39
  JK-storage           STORAGE      1.56     5.80     6.60     0  03:07        5.80
  CC-storage           STORAGE      0.95     1.22     8.22     0  04:44        1.22
  XR-storage           STORAGE      2.18     5.76     3.76     0  05:37        5.76
  
  
  *******************
  Node Inflow Summary
  *******************
  
  -------------------------------------------------------------------------------------------------
                                  Maximum  Maximum                  Lateral       Total        Flow
                                  Lateral    Total  Time of Max      Inflow      Inflow     Balance
                                   Inflow   Inflow   Occurrence      Volume      Volume       Error
  Node                 Type           LPS      LPS  days hr:min    10^6 ltr    10^6 ltr     Percent
  -------------------------------------------------------------------------------------------------
  WS02001211           JUNCTION      7.35   389.14     0  06:48       0.207        8.42       0.241
  WS02001212           JUNCTION      0.00   390.82     0  06:48           0         8.4       0.163
  WS02001213           JUNCTION      0.00   392.39     0  06:50           0        8.39       0.194
  WS02003069           JUNCTION      0.32   926.48     0  04:32     0.00902        15.9       0.118
  WS02003072           JUNCTION      0.00   926.15     0  04:32           0        15.9       0.163
  WS02003073           JUNCTION      1.82   927.77     0  04:33      0.0514        15.9       0.177
  WS02003060           JUNCTION     16.53   926.41     0  04:31       0.466        15.9       0.113
  WS02003066           JUNCTION      0.00   543.10     0  04:58           0        7.09       0.047
  WS02003059           JUNCTION      0.00   395.13     0  06:50           0        8.38       0.306
  WS02003067           JUNCTION      0.00   542.99     0  04:57           0         7.1       0.105
  WS02004401           JUNCTION      0.00   545.73     0  04:54           0        7.27       0.215
  WS02004402           JUNCTION      0.00   545.43     0  04:55           0        7.26       0.210
  WS02004403           JUNCTION      0.00   545.34     0  04:55           0        7.24       0.197
  WS02004404           JUNCTION      0.16   545.39     0  04:55     0.00457        7.23       0.155
  WS02004406           JUNCTION      0.00   545.43     0  04:55           0        7.21       0.382
  WS02004409           JUNCTION      0.00   545.34     0  04:56           0        7.18       0.147
  WS02004410           JUNCTION      0.00   544.43     0  04:56           0        7.16       0.177
  WS02004411           JUNCTION      0.00   543.74     0  04:56           0        7.15       0.191
  WS02004412           JUNCTION      0.00   543.35     0  04:57           0        7.14       0.217
  WS02004413           JUNCTION      0.00   543.09     0  04:57           0        7.12       0.338
  WS02004405           JUNCTION      0.04   545.39     0  04:55     0.00107        7.22       0.233
  WS02006109           JUNCTION      1.23   554.76     0  04:21      0.0347        7.32       0.148
  WS02006110           JUNCTION      0.00   554.12     0  04:21           0        7.31       0.181
  WS02006111           JUNCTION      0.00   576.62     0  04:21           0        7.29       0.028
  WS02006112           JUNCTION     10.21   555.29     0  04:21      0.0299        7.32       0.315
  WS02006113           JUNCTION      0.00   554.86     0  04:21           0         7.3       0.060
  WS02006115           JUNCTION      0.00   555.18     0  04:22           0         7.3       0.176
  WS02006116           JUNCTION      0.00   546.53     0  04:54           0        7.29       0.161
  WS02006230           JUNCTION     10.28   531.69     0  04:50        0.29        6.31       0.131
  WS02006231           JUNCTION      0.00   521.47     0  04:51           0        6.02       0.027
  WS02006232           JUNCTION      0.00   521.29     0  04:51           0        6.03       0.144
  WS02006234           JUNCTION      0.00   521.49     0  04:53           0        6.03       0.007
  WS02006235           JUNCTION      0.00   522.54     0  04:51           0         6.1       0.082
  WS02006238           JUNCTION      0.00   394.69     0  05:20           0        3.62       0.068
  WS02006240           JUNCTION      0.00   394.49     0  05:20           0        3.56       0.054
  WS02006242           JUNCTION      0.00   394.58     0  05:20           0        3.53       0.057
  WS02006243           JUNCTION      0.00   394.53     0  05:20           0        3.51      -0.032
  WS02006245           JUNCTION      0.00   394.94     0  05:20           0        3.51       0.092
  WS02006247           JUNCTION      0.00   394.61     0  05:20           0        3.51       0.014
  WS02006248           JUNCTION      0.00   395.18     0  05:20           0         3.5      -0.023
  WS02006249           JUNCTION      0.00   424.86     0  04:20           0        3.53       0.050
  WS02006239           JUNCTION      0.00   394.74     0  05:20           0        3.59      -0.052
  WS02006251           JUNCTION      0.08   409.05     0  04:20     0.00217        3.57      -0.001
  WS02006252           JUNCTION      0.00   400.00     0  05:10           0        3.36       0.003
  WS02006253           JUNCTION      1.48    81.18     0  04:18     0.00387        0.21       0.078
  WS02006256           JUNCTION      0.00   983.00     0  02:30           0        4.66       0.002
  WS02004138           JUNCTION      0.00   380.00     0  00:00           0        8.24       0.048
  WS02004139           JUNCTION      0.32   394.45     0  00:00     0.00905        8.24       0.328
  WS02004407           JUNCTION      0.00   545.38     0  04:55           0        7.18       0.063
  WS02006228           JUNCTION      0.00   553.15     0  04:21           0         7.3       0.106
  WS02006229           JUNCTION      0.00   551.00     0  04:20           0         7.3       0.118
  WS02006280           JUNCTION      0.00   239.18     0  02:13           0           1       0.007
  WS02006284           JUNCTION      0.10   239.16     0  02:13      0.0027           1       0.116
  WS02006287           JUNCTION      0.00   239.03     0  02:13           0           1       0.071
  WSF200               JUNCTION      0.00   543.20     0  04:58           0        7.09       0.042
  HS02004901           JUNCTION     12.53    12.53     0  02:07       0.036      0.0362       5.109
  HS02004881           JUNCTION      5.17    46.30     0  02:12      0.0157       0.166       0.063
  HS02004876           JUNCTION      8.53    41.37     0  02:13      0.0301        0.15       0.350
  HS02004870           JUNCTION      9.26    33.03     0  02:13      0.0297        0.12       0.089
  HS02004862           JUNCTION      7.84    24.34     0  02:13      0.0354      0.0908       0.186
  HS02004856           JUNCTION      6.89    16.58     0  02:13      0.0224      0.0568       2.594
  HS02004852           JUNCTION      0.00    10.10     0  02:12           0      0.0345       0.146
  HS02004848           JUNCTION     15.89    15.89     0  02:15      0.0711      0.0711       0.062
  HS02004842           JUNCTION      0.00     6.26     0  02:23           0      0.0496      35.520
  HS02004837           JUNCTION     21.42    26.87     0  02:12       0.231       0.267       0.304
  HS02004830           JUNCTION      0.15    26.99     0  02:12     0.00423       0.258       0.480
  HS02004824           JUNCTION     17.98    44.82     0  02:15      0.0931        0.35       0.154
  HS02004817           JUNCTION      0.60    45.41     0  02:15      0.0169       0.366       4.770
  HS02004807           JUNCTION     17.35    61.42     0  02:14      0.0547       0.404       1.057
  HS02004802           JUNCTION      0.00    61.74     0  02:15           0         0.4       1.026
  HS02004799           JUNCTION     13.49   151.33     0  02:10      0.0443       0.529       0.450
  HS02004792           JUNCTION     59.47   138.06     0  02:10       0.192       0.485       0.085
  HS02004788           JUNCTION     20.05    80.31     0  02:11       0.109       0.294       0.132
  HS02004785           JUNCTION      0.15    60.61     0  02:10     0.00423       0.187       0.257
  HS02004777           JUNCTION      0.03    60.90     0  02:09    0.000846       0.187       2.841
  HS02004770           JUNCTION     50.18    61.83     0  02:08       0.154       0.188       1.673
  HS02004480           JUNCTION      0.00   178.54     0  02:11           0       0.618       0.118
  HS02004479           JUNCTION      0.00    27.83     0  02:13           0       0.102       0.721
  HS02004478           JUNCTION      0.00   239.02     0  02:13           0           1       0.059
  YS02001745           JUNCTION     89.56   144.32     0  03:36       0.981       0.994       0.657
  YS02001748           JUNCTION      0.04   205.49     0  03:36     0.00127       0.989       1.986
  YS02001751           JUNCTION      0.01   160.23     0  03:21     0.00031       0.956       2.399
  YS02001754           JUNCTION      0.26   126.19     0  03:16     0.00733       0.941       2.722
  YS02001762           JUNCTION      0.00   127.43     0  03:06           0        1.06       2.060
  YS02001765           JUNCTION      0.00   124.99     0  03:06           0        1.06       2.384
  YS02001767           JUNCTION      0.54   131.08     0  02:31      0.0151        1.08       3.435
  YS02001770           JUNCTION    115.65   127.38     0  02:27        1.14        1.15       2.889
  YS02001774           JUNCTION      0.00    38.91     0  02:25           0      0.0604      72.915
  YS02001779           JUNCTION      0.01    24.53     0  02:30    0.000141      0.0235     192.424
  YS02001882           JUNCTION      0.00     4.24     0  02:04           0     0.00612      39.535
  YS02001884           JUNCTION      0.00    11.83     0  02:04           0      0.0241      26.127
  YS02001759           JUNCTION    113.32   233.12     0  02:39        1.06        2.08       1.128
  YS02001887           JUNCTION    149.78   152.19     0  02:33        1.26        1.27       0.577
  YS02001890           JUNCTION      0.00   151.77     0  02:33           0        1.24       0.647
  YS02001898           JUNCTION      0.00   150.31     0  02:32           0        1.23       0.188
  YS02001901           JUNCTION      0.00   150.43     0  02:34           0        1.23       0.464
  YS02001904           JUNCTION      0.00   149.45     0  02:34           0        1.23       0.430
  YS02001907           JUNCTION      0.00   268.82     0  02:48           0        2.64       0.851
  YS02001910           JUNCTION      0.00   122.70     0  02:51           0        1.43       0.730
  YS02001915           JUNCTION     80.40   121.77     0  02:52       0.836        1.43       0.329
  YS02001918           JUNCTION      0.00    41.31     0  03:03           0       0.596       0.207
  YS02001619           JUNCTION     78.12    78.12     0  02:46       0.826       0.826       1.403
  YS02001629           JUNCTION      0.00   148.58     0  03:17           0       0.747       3.765
  YS02001641           JUNCTION      0.00   162.86     0  02:47           0        1.61       1.344
  YS02001644           JUNCTION     85.06   248.14     0  02:47       0.941        2.53       1.055
  YS02001652           JUNCTION      0.00   115.07     0  02:39           0       0.876       2.778
  YS02001655           JUNCTION      0.15   164.92     0  03:16     0.00434         0.9       2.704
  YS02001920           JUNCTION      2.87    41.21     0  03:01      0.0809       0.598       0.362
  YS02001923           JUNCTION      0.04    38.35     0  03:01     0.00106       0.517       0.064
  YS02001926           JUNCTION      0.05    38.35     0  03:01     0.00147       0.518       0.449
  YS02001929           JUNCTION     38.30    38.30     0  03:01       0.517       0.517       0.062
  YS02001658           JUNCTION      0.00   202.91     0  03:16           0       0.926       1.699
  YS02001661           JUNCTION      0.00   273.04     0  04:16           0        1.18       0.905
  YS02001664           JUNCTION    106.06   234.45     0  04:14       0.923        1.16       0.147
  YS02001622           JUNCTION      0.00   103.74     0  03:18           0       0.815       3.972
  YS02001633           JUNCTION     86.43   166.13     0  02:46       0.969        1.67       1.961
  YS02001649           JUNCTION      0.00   350.20     0  02:47           0        3.31       1.144
  YS02001757           JUNCTION      0.00   654.09     0  02:47           0        6.21       1.505
  YS02001895           JUNCTION      0.00   150.06     0  02:33           0        1.23       0.310
  YS02001625           JUNCTION      0.00   150.05     0  03:17           0       0.785       5.226
  YS02163301           JUNCTION      0.00    80.46     0  02:46           0       0.729       3.420
  YS02163601           JUNCTION      0.11   165.00     0  02:46      0.0031        1.63       1.879
  YS02164001           JUNCTION      0.00   163.84     0  02:46           0        1.61       1.283
  YS02001647           JUNCTION      0.00   248.15     0  02:47           0        2.48       1.172
  YSB1154              JUNCTION     15.18    15.18     0  02:10      0.0537      0.0549       2.704
  YSB6556              JUNCTION      0.00    15.08     0  02:12           0      0.0558       2.283
  YSB1174              JUNCTION     14.06    14.06     0  02:06      0.0391      0.0398       3.336
  YSB1171              JUNCTION      0.00    27.76     0  02:12           0       0.101       6.675
  YS02006553           JUNCTION      0.00   269.29     0  02:51           0        2.63       0.551
  YS02006561           JUNCTION      0.00   409.80     0  02:48           0        3.73       0.024
  YS02006556           JUNCTION      0.00   269.12     0  02:47           0        2.63       0.399
  YS02006558           JUNCTION    126.38   392.65     0  02:49        1.15        3.75       0.116
  YS02001783           JUNCTION      0.00   392.78     0  02:47           0        3.73       0.043
  YS02001784           JUNCTION      1.06   393.52     0  02:47      0.0299        3.75       0.070
  YS02001786           JUNCTION      0.06   393.39     0  02:48     0.00159        3.75       0.068
  YS02001788           JUNCTION      0.07   422.50     0  03:15       0.002        3.75       0.039
  YS02001790           JUNCTION      0.15   481.61     0  03:15     0.00437        3.76       0.040
  YS02001791           JUNCTION      0.00   526.94     0  03:15           0        3.75       0.016
  YS02001793           JUNCTION      0.00   554.80     0  03:15           0        3.76       0.309
  WSC                  OUTFALL       0.00   927.58     0  04:33           0        15.9       0.000
  JK-storage           STORAGE       0.00   634.37     0  03:19           0         3.9     -20.637
  CC-storage           STORAGE       0.00   654.08     0  02:45           0        6.12       0.899
  XR-storage           STORAGE     361.41   361.41     0  02:47        7.56        8.16      -2.225
  
  
  **********************
  Node Surcharge Summary
  **********************
  
  Surcharging occurs when water rises above the top of the highest conduit.
  ---------------------------------------------------------------------
                                               Max. Height   Min. Depth
                                   Hours       Above Crown    Below Rim
  Node                 Type      Surcharged         Meters       Meters
  ---------------------------------------------------------------------
  WS02006109           JUNCTION        2.22          0.182        1.638
  WS02006110           JUNCTION        0.35          0.025        1.825
  WS02006112           JUNCTION        0.50          0.065        1.615
  WS02006230           JUNCTION        0.27          0.052        1.518
  WS02006231           JUNCTION        0.50          0.171        1.359
  WS02006232           JUNCTION        2.04          0.376        1.104
  WS02006234           JUNCTION        1.17          0.366        0.874
  WS02006235           JUNCTION        1.72          0.469        0.821
  WS02006238           JUNCTION        1.88          0.483        0.947
  WS02006240           JUNCTION        1.16          0.435        0.955
  WS02006242           JUNCTION        1.42          0.505        0.315
  WS02006243           JUNCTION        0.87          0.437        0.333
  WS02006245           JUNCTION        0.78          0.423        0.427
  WS02006247           JUNCTION        0.82          0.435        0.325
  WS02006248           JUNCTION        0.68          0.364        0.016
  WS02006249           JUNCTION        0.74          0.390        0.000
  WS02006239           JUNCTION        1.29          0.443        0.847
  WS02006251           JUNCTION        0.23          0.257        0.923
  WS02006252           JUNCTION        1.44          0.423        0.677
  WS02006253           JUNCTION        0.25          0.360        2.120
  WS02006256           JUNCTION        6.35          2.050        0.000
  WS02006228           JUNCTION        2.14          0.212        1.988
  YS02001748           JUNCTION        1.43          0.102        1.088
  YS02001751           JUNCTION        4.41          0.386        0.814
  YS02001754           JUNCTION        4.83          0.618        0.532
  YS02001762           JUNCTION        5.39          0.929        0.221
  YS02001765           JUNCTION        5.34          0.892        0.208
  YS02001767           JUNCTION        5.30          0.867        0.163
  YS02001770           JUNCTION        5.24          0.851        0.069
  YS02001774           JUNCTION        5.38          0.954        0.096
  YS02001779           JUNCTION        4.74          0.680        0.000
  YS02001759           JUNCTION        5.43          0.942        0.268
  YS02001619           JUNCTION        4.35          0.524        0.086
  YS02001629           JUNCTION        4.35          0.470        0.000
  YS02001641           JUNCTION        5.37          0.909        0.191
  YS02001644           JUNCTION        5.37          0.898        0.022
  YS02001652           JUNCTION        4.91          0.689        0.441
  YS02001655           JUNCTION        4.47          0.498        0.702
  YS02001658           JUNCTION        1.72          0.322        0.978
  YS02001622           JUNCTION        4.38          0.533        0.087
  YS02001633           JUNCTION        5.34          0.923        0.137
  YS02001649           JUNCTION        5.41          0.905        0.145
  YS02001757           JUNCTION        5.52          1.024        0.186
  YS02001625           JUNCTION        5.03          0.780        0.000
  YS02163301           JUNCTION        5.28          0.890        0.140
  YS02163601           JUNCTION        5.40          0.974        0.106
  YS02164001           JUNCTION        5.35          0.901        0.199
  YS02001647           JUNCTION        4.98          0.701        0.199
  YS02001790           JUNCTION        0.15          0.225        0.932
  YS02001791           JUNCTION        0.19          0.360        1.560
  YS02001793           JUNCTION        0.26          0.783        1.817
  
  
  *********************
  Node Flooding Summary
  *********************
  
  Flooding refers to all water that overflows a node, whether it ponds or not.
  --------------------------------------------------------------------------
                                                             Total   Maximum
                                 Maximum   Time of Max       Flood    Ponded
                        Hours       Rate    Occurrence      Volume     Depth
  Node                 Flooded       LPS   days hr:min    10^6 ltr    Meters
  --------------------------------------------------------------------------
  WS02006249              0.19    102.08      0  04:20       0.026     0.000
  WS02006256              2.23    778.52      0  04:20       2.118     0.000
  YS02001779              0.01      3.21      0  04:20       0.000     0.000
  YS02001629              0.01      3.69      0  04:19       0.000     0.000
  YS02001625              0.01     12.03      0  04:19       0.000     0.000
  JK-storage              0.06     86.81      0  03:09       0.014     0.000
  
  
  **********************
  Storage Volume Summary
  **********************
  
  --------------------------------------------------------------------------------------------------
                         Average     Avg  Evap Exfil       Maximum     Max    Time of Max    Maximum
                          Volume    Pcnt  Pcnt  Pcnt        Volume    Pcnt     Occurrence    Outflow
  Storage Unit           1000 m3    Full  Loss  Loss       1000 m3    Full    days hr:min        LPS
  --------------------------------------------------------------------------------------------------
  JK-storage               0.078      27     0     0         0.291     100       0  03:07     983.00
  CC-storage               2.651      17     0     0         3.413      22       0  04:44     400.00
  XR-storage               0.261      28     0     0         0.691      75       0  05:37     380.00
  
  
  ***********************
  Outfall Loading Summary
  ***********************
  
  ---------------------------------------------------------------------------------------------------------------------------------
                         Flow       Avg       Max       Total         Total         Total         Total         Total         Total
                         Freq      Flow      Flow      Volume           COD            SS            TN            TP         NH4-N
  Outfall Node           Pcnt       LPS       LPS    10^6 ltr            kg            kg            kg            kg            kg
  ---------------------------------------------------------------------------------------------------------------------------------
  WSC                  100.00    663.38    927.58      15.868      1937.884      3146.108       157.255        19.192        97.064
  ---------------------------------------------------------------------------------------------------------------------------------
  System               100.00    663.38    927.58      15.868      1937.884      3146.108       157.255        19.192        97.064
  
  
  ********************
  Link Flow Summary
  ********************
  
  -----------------------------------------------------------------------------
                                 Maximum  Time of Max   Maximum    Max/    Max/
                                  |Flow|   Occurrence   |Veloc|    Full    Full
  Link                 Type          LPS  days hr:min     m/sec    Flow   Depth
  -----------------------------------------------------------------------------
  WS02003066WSF200     CONDUIT    543.20     0  04:58      2.79    0.09    0.23
  WS02006287WS02006284 CONDUIT    239.07     0  02:13      1.71    0.11    0.23
  WS02006284WS02006280 CONDUIT    239.18     0  02:13      1.95    0.10    0.21
  WS02006280WS02006229 CONDUIT    239.18     0  02:13      3.13    0.05    0.15
  WS02006229WS02006228 CONDUIT    553.15     0  04:21      1.10    1.83    1.00
  WS02006256WS02006235 CONDUIT    264.10     0  00:12      3.74    2.80    1.00
  WS02006253WS02006251 CONDUIT     79.08     0  04:18      0.52    0.24    1.00
  WS02006252WS02006251 CONDUIT    401.20     0  05:19      3.19    1.47    1.00
  WS02006251WS02006249 CONDUIT    424.86     0  04:20      1.10    1.23    1.00
  WS02006249WS02006248 CONDUIT    395.18     0  05:20      1.14    2.16    1.00
  WS02006248WS02006247 CONDUIT    394.61     0  05:20      1.11    0.86    1.00
  WS02006247WS02006245 CONDUIT    394.94     0  05:20      1.08    3.13    1.00
  WS02006245WS02006243 CONDUIT    394.53     0  05:20      1.09    1.17    1.00
  WS02006243WS02006242 CONDUIT    394.58     0  05:20      1.03    0.84    1.00
  WS02006242WS02006240 CONDUIT    394.49     0  05:20      1.03    1.57    1.00
  WS02006240WS02006239 CONDUIT    394.74     0  05:20      1.03    1.24    1.00
  WS02006239WS02006238 CONDUIT    394.69     0  05:20      1.03    1.26    1.00
  WS02006238WS02006235 CONDUIT    394.74     0  05:20      1.05    0.88    1.00
  WS02006235WS02006234 CONDUIT    521.49     0  04:53      1.36    5.50    1.00
  WS02006234WS02006232 CONDUIT    521.29     0  04:51      1.35    1.05    1.00
  WS02006232WS02006231 CONDUIT    521.47     0  04:51      1.36    1.09    1.00
  WS02006231WS02006230 CONDUIT    521.41     0  04:50      1.35    7.91    1.00
  WS02006230WS02006229 CONDUIT    532.34     0  04:20      1.38   11.85    1.00
  WS02006228WS02006109 CONDUIT    553.53     0  04:21      1.10    2.42    1.00
  WS02006116WS02004401 CONDUIT    545.73     0  04:54      0.88    0.75    0.85
  WS02006115WS02006116 CONDUIT    546.53     0  04:54      0.89    0.70    0.77
  WS02006113WS02006111 CONDUIT    576.62     0  04:21      2.49    0.69    0.47
  WS02006112WS02006115 CONDUIT    555.18     0  04:22      0.78    0.33    0.87
  WS02006111WS02006112 CONDUIT    555.16     0  04:21      1.58    0.26    0.68
  WS02006110WS02006113 CONDUIT    554.86     0  04:21      1.31    0.50    0.79
  WS02006109WS02006110 CONDUIT    554.12     0  04:21      1.10    1.07    1.00
  WS02004411WS02004412 CONDUIT    543.35     0  04:57      0.93    0.77    0.70
  WS02004401WS02004402 CONDUIT    545.43     0  04:55      0.88    0.65    0.87
  WS02004413WS02003067 CONDUIT    542.99     0  04:57      1.12    0.23    0.59
  WS02004412WS02004413 CONDUIT    543.09     0  04:57      0.83    0.36    0.78
  WS02004410WS02004411 CONDUIT    543.74     0  04:56      0.94    0.74    0.69
  WS02004409WS02004410 CONDUIT    544.43     0  04:56      0.98    0.70    0.68
  WS02004407WS02004409 CONDUIT    545.34     0  04:56      1.50    0.19    0.48
  WS02004406WS02004407 CONDUIT    545.38     0  04:55      1.05    0.24    0.63
  WS02004405WS02004406 CONDUIT    545.43     0  04:55      0.74    1.08    0.96
  WS02004404WS02004405 CONDUIT    545.35     0  04:55      0.96    5.34    0.96
  WS02004403WS02004404 CONDUIT    545.23     0  04:55      0.82    0.39    0.93
  WS02004402WS02004403 CONDUIT    545.34     0  04:55      0.87    0.78    0.89
  WS02004139WS02001211 CONDUIT    381.79     0  06:48      0.90    0.48    0.59
  WS02004138WS02004139 CONDUIT    394.13     0  00:00      3.62    0.08    0.44
  WS02003067WS02003066 CONDUIT    543.10     0  04:58      1.21    0.17    0.42
  WS02001213WS02003059 CONDUIT    395.13     0  06:50      0.89    0.65    0.77
  WS02001212WS02001213 CONDUIT    392.39     0  06:50      1.32    0.61    0.47
  WS02001211WS02001212 CONDUIT    390.82     0  06:48      0.78    0.30    0.65
  WS02003072WS02003073 CONDUIT    925.95     0  04:33      1.72    2.00    0.48
  WS02003069WS02003072 CONDUIT    926.15     0  04:32      1.61    0.45    0.51
  WS02003060WS02003069 CONDUIT    926.16     0  04:32      1.86    0.36    0.45
  WS02003059WS02003060 CONDUIT    398.82     0  06:49      0.95    0.26    0.66
  HS02004901HS02004770 CONDUIT     11.87     0  02:10      0.05    0.04    0.34
  HS02004876HS02004881 CONDUIT     41.49     0  02:13      0.64    0.44    0.09
  HS02004870HS02004876 CONDUIT     33.01     0  02:13      0.44    0.02    0.11
  HS02004842HS02004848 CONDUIT      6.26     0  02:23      0.03    0.00    0.28
  HS02004837HS02004842 CONDUIT      6.49     0  02:24      0.42    0.00    0.29
  HS02004830HS02004837 CONDUIT     26.84     0  02:12      0.47    0.03    0.08
  HS02004824HS02004830 CONDUIT     26.99     0  02:13      0.50    0.04    0.08
  HS02004817HS02004824 CONDUIT     44.81     0  02:15      0.17    0.02    0.41
  HS02004770HS02004777 CONDUIT     60.87     0  02:09      0.25    0.11    0.35
  HS02004799HS02004480 CONDUIT    151.10     0  02:11      0.64    0.19    0.34
  HS02004792HS02004799 CONDUIT    137.99     0  02:11      0.73    0.08    0.27
  HS02004788HS02004792 CONDUIT     80.25     0  02:12      0.88    0.05    0.13
  HS02004785HS02004788 CONDUIT     60.53     0  02:11      0.55    0.46    0.16
  HS02004777HS02004785 CONDUIT     60.46     0  02:10      0.30    0.07    0.29
  HS02004480HS02004478 CONDUIT    178.52     0  02:12      1.02    0.75    0.25
  HS02004479HS02004480 CONDUIT     28.08     0  02:14      0.17    0.03    0.33
  HS02004862HS02004870 CONDUIT     24.30     0  02:14      0.50    0.03    0.07
  HS02004848HS02004852 CONDUIT     10.10     0  02:12      0.34    0.01    0.04
  HS02004856HS02004862 CONDUIT     16.54     0  02:13      0.37    0.02    0.06
  HS02004852HS02004856 CONDUIT     10.05     0  02:14      0.15    0.01    0.10
  HS02004802HS02004478 CONDUIT     62.20     0  02:16      0.33    0.05    0.27
  HS02004478WS02006287 CONDUIT    239.03     0  02:13      1.40    0.07    0.19
  HS02004817HS02004807 CONDUIT     46.02     0  02:17      0.12    0.03    0.53
  HS02004807HS02004802 CONDUIT     61.74     0  02:15      0.28    0.12    0.32
  YS02001759YS02001757 CONDUIT    233.59     0  02:39      0.30    0.17    1.00
  YS02001762YS02001759 CONDUIT    129.47     0  03:06      0.17    0.15    1.00
  YS02001765YS02001762 CONDUIT    127.43     0  03:06      0.24    0.12    1.00
  YS02001770YS02001767 CONDUIT    130.55     0  02:31      0.29    0.52    1.00
  YS02001774YS02001770 CONDUIT     38.91     0  02:25      0.13    0.02    1.00
  YS02001779YS02001774 CONDUIT     24.52     0  02:30      0.07    0.01    1.00
  YS02001649YS02001757 CONDUIT    349.91     0  02:47      0.45    0.21    1.00
  YS02001767YS02001765 CONDUIT    124.99     0  03:06      0.27    0.16    1.00
  YS02006561YS02001783 CONDUIT    392.78     0  02:47      1.89    0.20    0.53
  YS02001783YS02001784 CONDUIT    392.46     0  02:47      1.33    0.54    0.79
  YS02001784YS02001785 CONDUIT    393.33     0  02:48      1.42    0.92    0.84
  YS02001788YS02001790 CONDUIT    481.45     0  03:15      1.98    0.35    0.94
  YS02001790YS02001791 CONDUIT    526.94     0  03:15      2.32    0.57    1.00
  YS02001791YS02001793 CONDUIT    554.80     0  03:15      4.70    0.24    1.00
  YS02001910YS02001907 CONDUIT    123.52     0  02:51      0.49    0.07    0.79
  YS02001786YS02001788 CONDUIT    422.43     0  03:15      1.92    0.81    0.86
  YS02001915YS02001910 CONDUIT    122.70     0  02:51      0.45    0.06    0.58
  YS02001918YS02001915 CONDUIT     42.69     0  03:05      0.44    0.02    0.30
  YS02001923YS02001920 CONDUIT     38.34     0  03:01      0.49    0.02    0.16
  YS02001926YS02001923 CONDUIT     38.31     0  03:01      0.54    0.05    0.15
  YS02001929YS02001926 CONDUIT     38.29     0  03:01      0.57    0.02    0.14
  YS02001920YS02001918 CONDUIT     41.31     0  03:03      0.50    0.04    0.17
  YS02001629YS02163301 CONDUIT     80.46     0  02:46      0.11    0.10    1.00
  YS02001619YS02001622 CONDUIT    103.74     0  03:18      0.66    0.15    1.00
  YS02001622YS02001625 CONDUIT    150.05     0  03:17      0.27    0.08    1.00
  YS02001625YS02001629 CONDUIT    148.58     0  03:17      0.26    0.07    1.00
  YS02163301YS02001633 CONDUIT     85.77     0  04:19      0.11    0.08    1.00
  YS02163601YS02164001 CONDUIT    163.84     0  02:46      0.21    0.15    1.00
  YS02164001YS02001641 CONDUIT    162.86     0  02:47      0.21    0.22    1.00
  YS02001641YS02001644 CONDUIT    163.11     0  02:47      0.21    0.53    1.00
  YS02001647YS02001649 CONDUIT    258.16     0  02:47      0.33    0.14    1.00
  YS02006553YS02006556 CONDUIT    269.12     0  02:47      0.37    0.23    0.87
  YS02006556YS02006558 CONDUIT    269.72     0  02:49      0.36    0.21    0.90
  YSB6556YSB1171       CONDUIT     15.36     0  02:14      0.06    0.02    0.60
  YS02001907YS02006553 CONDUIT    269.29     0  02:51      0.30    0.32    0.99
  YS02006558YS02006561 CONDUIT    409.80     0  02:48      2.55    0.91    0.56
  YS02001633YS02163601 CONDUIT    164.89     0  02:46      0.21    0.17    1.00
  YS02001644YS02001647 CONDUIT    248.15     0  02:47      0.32    0.15    1.00
  YS02001745YS02001748 CONDUIT    205.44     0  03:36      1.47    0.08    0.87
  YS02001748YS02001751 CONDUIT    160.22     0  03:21      1.13    0.08    1.00
  YS02001751YS02001754 CONDUIT    125.93     0  03:16      0.90    0.06    1.00
  YS02001754YS02001757 CONDUIT    126.95     0  03:16      0.33    0.05    1.00
  YS02001882YS02001884 CONDUIT      4.24     0  02:04      0.07    0.00    0.52
  YS02001884YS02001887 CONDUIT     11.83     0  02:04      0.05    0.02    0.61
  YS02001890YS02001895 CONDUIT    150.06     0  02:33      0.32    0.07    0.58
  YS02001895YS02001898 CONDUIT    150.31     0  02:32      0.45    0.26    0.45
  YS02001898YS02001901 CONDUIT    150.43     0  02:34      0.36    0.10    0.53
  YS02001901YS02001904 CONDUIT    149.45     0  02:34      0.32    0.23    0.58
  YS02001904YS02001907 CONDUIT    150.69     0  02:34      0.24    0.05    0.74
  YS02001887YS02001890 CONDUIT    151.77     0  02:33      0.27    0.26    0.67
  YS02001652YS02001649 CONDUIT    120.31     0  02:38      0.37    0.06    1.00
  YS02001655YS02001652 CONDUIT    115.07     0  02:39      0.93    0.06    1.00
  YS02001658YS02001655 CONDUIT    164.76     0  03:16      1.30    0.07    1.00
  YS02001661YS02001658 CONDUIT    202.91     0  03:16      1.53    0.08    0.92
  YS02001664YS02001661 CONDUIT    273.04     0  04:16      1.23    0.09    0.59
  YSB1154YSB6556       CONDUIT     15.08     0  02:12      0.19    0.03    0.49
  YSB1174YSB1171       CONDUIT     13.26     0  02:07      0.06    0.02    0.60
  YSB1171HS02004479    CONDUIT     27.83     0  02:13      0.54    0.02    0.47
  HS02004881HS02006253 CONDUIT     46.29     0  02:13      1.78    0.01    0.50
  YS02001793JiankangQianchi CONDUIT    634.37     0  03:19     14.22    0.05    1.00
  YS02001757CaochengTiaoxuchi CONDUIT    654.08     0  02:45      1.25    0.29    1.00
  WSF200WS02003060     CONDUIT    545.11     0  04:57      1.93    0.12    0.34
  1                    CONDUIT    927.58     0  04:33      3.26    0.32    0.39
  CC-Pump-1            PUMP       200.00     0  04:00              1.00
  CC-Pump-2            PUMP       200.00     0  05:10              1.00
  JK-Pump-1            PUMP       300.00     0  02:30              1.00
  JK-Pump-2            PUMP       683.00     0  02:30              1.00
  XR-Pump-1            PUMP        95.00     0  00:00              1.00
  XR-Pump-2            PUMP        95.00     0  00:00              1.00
  XR-Pump-3            PUMP        95.00     0  00:00              1.00
  XR-Pump-4            PUMP        95.00     0  00:00              1.00
  
  
  ***************************
  Flow Classification Summary
  ***************************
  
  -------------------------------------------------------------------------------------
                      Adjusted    ---------- Fraction of Time in Flow Class ---------- 
                       /Actual         Up    Down  Sub   Sup   Up    Down  Norm  Inlet 
  Conduit               Length    Dry  Dry   Dry   Crit  Crit  Crit  Crit  Ltd   Ctrl  
  -------------------------------------------------------------------------------------
  WS02003066WSF200        1.00   0.01  0.04  0.00  0.00  0.95  0.00  0.00  0.73  0.00
  WS02006287WS02006284    1.00   0.03  0.02  0.00  0.82  0.13  0.00  0.00  0.77  0.00
  WS02006284WS02006280    1.00   0.04  0.00  0.00  0.00  0.00  0.00  0.96  0.00  0.00
  WS02006280WS02006229    1.00   0.04  0.00  0.00  0.00  0.00  0.00  0.96  0.00  0.00
  WS02006229WS02006228    1.00   0.00  0.00  0.00  1.00  0.00  0.00  0.00  0.00  0.00
  WS02006256WS02006235    1.00   0.01  0.00  0.00  0.99  0.00  0.00  0.00  0.00  0.00
  WS02006253WS02006251    1.00   0.02  0.02  0.00  0.97  0.00  0.00  0.00  0.00  0.00
  WS02006252WS02006251    1.00   0.20  0.00  0.00  0.02  0.00  0.77  0.00  0.00  0.00
  WS02006251WS02006249    1.00   0.00  0.00  0.00  1.00  0.00  0.00  0.00  0.40  0.00
  WS02006249WS02006248    1.00   0.00  0.00  0.00  0.89  0.00  0.11  0.00  0.00  0.00
  WS02006248WS02006247    1.00   0.00  0.00  0.00  0.99  0.00  0.00  0.01  0.24  0.00
  WS02006247WS02006245    1.00   0.01  0.00  0.00  0.99  0.00  0.00  0.00  0.00  0.00
  WS02006245WS02006243    1.00   0.01  0.00  0.00  0.93  0.00  0.00  0.06  0.01  0.00
  WS02006243WS02006242    1.00   0.01  0.00  0.00  0.99  0.00  0.00  0.00  0.31  0.00
  WS02006242WS02006240    1.00   0.01  0.00  0.00  0.99  0.00  0.00  0.00  0.00  0.00
  WS02006240WS02006239    1.00   0.01  0.00  0.00  0.93  0.00  0.00  0.06  0.01  0.00
  WS02006239WS02006238    1.00   0.01  0.00  0.00  0.99  0.00  0.00  0.00  0.17  0.00
  WS02006238WS02006235    1.00   0.01  0.00  0.00  0.99  0.00  0.00  0.00  0.00  0.00
  WS02006235WS02006234    1.00   0.01  0.00  0.00  0.95  0.00  0.05  0.00  0.00  0.00
  WS02006234WS02006232    1.00   0.01  0.00  0.00  0.99  0.00  0.00  0.00  0.13  0.00
  WS02006232WS02006231    1.00   0.01  0.00  0.00  0.99  0.00  0.00  0.00  0.00  0.00
  WS02006231WS02006230    1.00   0.01  0.00  0.00  0.61  0.00  0.38  0.00  0.00  0.00
  WS02006230WS02006229    1.00   0.00  0.00  0.00  0.99  0.00  0.00  0.01  0.00  0.00
  WS02006228WS02006109    1.00   0.00  0.00  0.00  1.00  0.00  0.00  0.00  0.00  0.00
  WS02006116WS02004401    1.00   0.01  0.00  0.00  0.99  0.00  0.00  0.00  0.00  0.00
  WS02006115WS02006116    1.00   0.01  0.00  0.00  0.98  0.00  0.00  0.00  0.00  0.00
  WS02006113WS02006111    1.00   0.01  0.00  0.00  0.00  0.99  0.00  0.00  0.20  0.00
  WS02006112WS02006115    1.00   0.01  0.00  0.00  0.99  0.00  0.00  0.00  0.00  0.00
  WS02006111WS02006112    1.00   0.01  0.00  0.00  0.99  0.00  0.00  0.00  0.96  0.00
  WS02006110WS02006113    1.00   0.00  0.01  0.00  0.99  0.00  0.00  0.00  0.00  0.00
  WS02006109WS02006110    1.00   0.00  0.00  0.00  0.99  0.00  0.00  0.00  0.00  0.00
  WS02004411WS02004412    1.00   0.02  0.00  0.00  0.98  0.00  0.00  0.00  0.00  0.00
  WS02004401WS02004402    1.00   0.01  0.00  0.00  0.99  0.00  0.00  0.00  0.00  0.00
  WS02004413WS02003067    1.00   0.03  0.02  0.00  0.00  0.00  0.96  0.00  0.00  0.00
  WS02004412WS02004413    1.00   0.03  0.00  0.00  0.97  0.00  0.00  0.00  0.02  0.00
  WS02004410WS02004411    1.00   0.02  0.00  0.00  0.98  0.00  0.00  0.00  0.03  0.00
  WS02004409WS02004410    1.00   0.02  0.00  0.00  0.98  0.00  0.00  0.00  0.04  0.00
  WS02004407WS02004409    1.00   0.02  0.00  0.00  0.97  0.00  0.00  0.00  0.91  0.00
  WS02004406WS02004407    1.00   0.00  0.02  0.00  0.98  0.00  0.00  0.00  0.00  0.00
  WS02004405WS02004406    1.00   0.00  0.00  0.00  1.00  0.00  0.00  0.00  0.02  0.00
  WS02004404WS02004405    1.00   0.00  0.00  0.00  1.00  0.00  0.00  0.00  0.00  0.00
  WS02004403WS02004404    1.00   0.00  0.01  0.00  0.99  0.00  0.00  0.00  0.00  0.00
  WS02004402WS02004403    1.00   0.01  0.00  0.00  0.99  0.00  0.00  0.00  0.00  0.00
  WS02004139WS02001211    1.00   0.00  0.00  0.00  1.00  0.00  0.00  0.00  0.00  0.00
  WS02004138WS02004139    1.00   0.00  0.00  0.00  1.00  0.00  0.00  0.00  1.00  0.00
  WS02003067WS02003066    1.00   0.04  0.01  0.00  0.95  0.00  0.00  0.00  0.00  0.00
  WS02001213WS02003059    1.00   0.00  0.00  0.00  1.00  0.00  0.00  0.00  0.00  0.00
  WS02001212WS02001213    1.00   0.00  0.00  0.00  0.92  0.00  0.08  0.00  0.00  0.00
  WS02001211WS02001212    1.00   0.00  0.00  0.00  1.00  0.00  0.00  0.00  0.00  0.00
  WS02003072WS02003073    1.00   0.00  0.00  0.00  0.00  0.00  0.00  1.00  0.00  0.00
  WS02003069WS02003072    1.00   0.00  0.00  0.00  1.00  0.00  0.00  0.00  0.14  0.00
  WS02003060WS02003069    1.00   0.00  0.00  0.00  0.99  0.01  0.00  0.00  0.12  0.00
  WS02003059WS02003060    1.00   0.00  0.00  0.00  1.00  0.00  0.00  0.00  0.00  0.00
  HS02004901HS02004770    1.00   0.04  0.00  0.00  0.96  0.00  0.00  0.00  0.01  0.00
  HS02004876HS02004881    1.00   0.00  0.00  0.00  1.00  0.00  0.00  0.00  0.00  0.00
  HS02004870HS02004876    1.00   0.00  0.00  0.00  1.00  0.00  0.00  0.00  0.95  0.00
  HS02004842HS02004848    1.00   0.00  0.04  0.00  0.96  0.00  0.00  0.00  0.65  0.00
  HS02004837HS02004842    1.00   0.00  0.00  0.00  1.00  0.00  0.00  0.00  0.11  0.00
  HS02004830HS02004837    1.00   0.00  0.00  0.00  1.00  0.00  0.00  0.00  0.99  0.00
  HS02004824HS02004830    1.00   0.00  0.00  0.00  1.00  0.00  0.00  0.00  0.00  0.00
  HS02004817HS02004824    1.00   0.00  0.00  0.00  1.00  0.00  0.00  0.00  1.00  0.00
  HS02004770HS02004777    1.00   0.00  0.04  0.00  0.96  0.00  0.00  0.00  0.05  0.00
  HS02004799HS02004480    1.00   0.00  0.01  0.00  0.95  0.00  0.04  0.00  0.00  0.00
  HS02004792HS02004799    1.00   0.00  0.00  0.00  1.00  0.00  0.00  0.00  0.98  0.00
  HS02004788HS02004792    1.00   0.00  0.00  0.00  1.00  0.00  0.00  0.00  0.98  0.00
  HS02004785HS02004788    1.00   0.00  0.00  0.00  1.00  0.00  0.00  0.00  0.00  0.00
  HS02004777HS02004785    1.00   0.00  0.00  0.00  1.00  0.00  0.00  0.00  0.17  0.00
  HS02004480HS02004478    1.00   0.04  0.00  0.00  0.84  0.00  0.00  0.12  0.00  0.00
  HS02004479HS02004480    1.00   0.01  0.00  0.00  0.99  0.00  0.00  0.00  0.15  0.00
  HS02004862HS02004870    1.00   0.00  0.00  0.00  1.00  0.00  0.00  0.00  0.06  0.00
  HS02004848HS02004852    1.00   0.04  0.00  0.00  0.96  0.00  0.00  0.00  0.72  0.00
  HS02004856HS02004862    1.00   0.00  0.06  0.00  0.94  0.00  0.00  0.00  0.77  0.00
  HS02004852HS02004856    1.00   0.04  0.01  0.00  0.96  0.00  0.00  0.00  0.84  0.00
  HS02004802HS02004478    1.00   0.04  0.01  0.00  0.96  0.00  0.00  0.00  0.01  0.00
  HS02004478WS02006287    1.00   0.05  0.00  0.00  0.90  0.05  0.00  0.00  0.76  0.00
  HS02004817HS02004807    1.00   0.00  0.04  0.00  0.96  0.00  0.00  0.00  0.00  0.00
  HS02004807HS02004802    1.00   0.04  0.00  0.00  0.96  0.00  0.00  0.00  0.01  0.00
  YS02001759YS02001757    1.00   0.00  0.00  0.00  1.00  0.00  0.00  0.00  0.18  0.00
  YS02001762YS02001759    1.00   0.00  0.00  0.00  1.00  0.00  0.00  0.00  0.04  0.00
  YS02001765YS02001762    1.00   0.00  0.00  0.00  1.00  0.00  0.00  0.00  0.20  0.00
  YS02001770YS02001767    1.00   0.00  0.00  0.00  1.00  0.00  0.00  0.00  0.00  0.00
  YS02001774YS02001770    1.00   0.00  0.04  0.00  0.96  0.00  0.00  0.00  0.05  0.00
  YS02001779YS02001774    1.00   0.00  0.00  0.00  1.00  0.00  0.00  0.00  0.24  0.00
  YS02001649YS02001757    1.00   0.00  0.00  0.00  1.00  0.00  0.00  0.00  0.18  0.00
  YS02001767YS02001765    1.00   0.00  0.00  0.00  1.00  0.00  0.00  0.00  0.01  0.00
  YS02006561YS02001783    1.00   0.06  0.00  0.00  0.01  0.93  0.00  0.00  0.68  0.00
  YS02001783YS02001784    1.00   0.00  0.06  0.00  0.94  0.00  0.00  0.00  0.01  0.00
  YS02001784YS02001785    1.00   0.00  0.00  0.00  1.00  0.00  0.00  0.00  0.23  0.00
  YS02001788YS02001790    1.00   0.00  0.00  0.00  0.08  0.92  0.00  0.00  0.72  0.00
  YS02001790YS02001791    1.00   0.00  0.00  0.00  0.02  0.98  0.00  0.00  0.58  0.00
  YS02001791YS02001793    1.00   0.00  0.00  0.00  0.05  0.95  0.00  0.00  0.06  0.00
  YS02001910YS02001907    1.00   0.00  0.00  0.00  0.99  0.00  0.00  0.01  0.13  0.00
  YS02001786YS02001788    1.00   0.00  0.00  0.00  0.08  0.92  0.00  0.00  0.00  0.00
  YS02001915YS02001910    1.00   0.00  0.00  0.00  1.00  0.00  0.00  0.00  0.22  0.00
  YS02001918YS02001915    1.00   0.00  0.00  0.00  0.99  0.00  0.00  0.00  0.73  0.00
  YS02001923YS02001920    1.00   0.00  0.00  0.00  1.00  0.00  0.00  0.00  1.00  0.00
  YS02001926YS02001923    1.00   0.00  0.02  0.00  0.00  0.00  0.98  0.00  0.00  0.00
  YS02001929YS02001926    1.00   0.00  0.04  0.00  0.96  0.00  0.00  0.00  0.87  0.00
  YS02001920YS02001918    1.00   0.00  0.00  0.00  1.00  0.00  0.00  0.00  0.00  0.00
  YS02001629YS02163301    1.00   0.05  0.00  0.00  0.94  0.00  0.00  0.00  0.00  0.00
  YS02001619YS02001622    1.00   0.04  0.00  0.00  0.96  0.00  0.00  0.00  0.00  0.00
  YS02001622YS02001625    1.00   0.04  0.00  0.00  0.96  0.00  0.00  0.00  0.11  0.00
  YS02001625YS02001629    1.00   0.04  0.03  0.00  0.92  0.00  0.02  0.00  0.00  0.00
  YS02163301YS02001633    1.00   0.00  0.05  0.00  0.95  0.00  0.00  0.00  0.00  0.00
  YS02163601YS02164001    1.00   0.00  0.02  0.00  0.98  0.00  0.00  0.00  0.00  0.00
  YS02164001YS02001641    1.00   0.00  0.02  0.00  0.98  0.00  0.00  0.00  0.07  0.00
  YS02001641YS02001644    1.00   0.00  0.00  0.00  1.00  0.00  0.00  0.00  0.00  0.00
  YS02001647YS02001649    1.00   0.00  0.06  0.00  0.94  0.00  0.00  0.00  0.01  0.00
  YS02006553YS02006556    1.00   0.00  0.00  0.00  1.00  0.00  0.00  0.00  0.03  0.00
  YS02006556YS02006558    1.00   0.00  0.00  0.00  1.00  0.00  0.00  0.00  0.00  0.00
  YSB6556YSB1171          1.00   0.01  0.02  0.00  0.97  0.00  0.00  0.00  0.00  0.00
  YS02001907YS02006553    1.00   0.00  0.01  0.00  0.99  0.00  0.00  0.00  0.00  0.00
  YS02006558YS02006561    1.00   0.06  0.00  0.00  0.00  0.94  0.00  0.00  0.72  0.00
  YS02001633YS02163601    1.00   0.00  0.00  0.00  1.00  0.00  0.00  0.00  0.18  0.00
  YS02001644YS02001647    1.00   0.00  0.06  0.00  0.94  0.00  0.00  0.00  0.00  0.00
  YS02001745YS02001748    1.00   0.00  0.00  0.00  0.90  0.01  0.00  0.10  0.09  0.00
  YS02001748YS02001751    1.00   0.00  0.00  0.00  0.97  0.03  0.00  0.00  0.20  0.00
  YS02001751YS02001754    1.00   0.00  0.00  0.00  0.93  0.00  0.00  0.07  0.02  0.00
  YS02001754YS02001757    1.00   0.00  0.00  0.00  1.00  0.00  0.00  0.00  0.24  0.00
  YS02001882YS02001884    1.00   0.05  0.00  0.00  0.95  0.00  0.00  0.00  0.00  0.00
  YS02001884YS02001887    1.00   0.02  0.01  0.00  0.97  0.00  0.00  0.00  0.00  0.00
  YS02001890YS02001895    1.00   0.00  0.05  0.00  0.95  0.00  0.00  0.00  0.00  0.00
  YS02001895YS02001898    1.00   0.05  0.00  0.00  0.93  0.00  0.01  0.00  0.00  0.00
  YS02001898YS02001901    1.00   0.05  0.00  0.00  0.94  0.00  0.00  0.00  0.02  0.00
  YS02001901YS02001904    1.00   0.05  0.00  0.00  0.95  0.00  0.00  0.00  0.00  0.00
  YS02001904YS02001907    1.00   0.00  0.05  0.00  0.95  0.00  0.00  0.00  0.00  0.00
  YS02001887YS02001890    1.00   0.00  0.00  0.00  0.99  0.00  0.01  0.00  0.00  0.00
  YS02001652YS02001649    1.00   0.00  0.00  0.00  1.00  0.00  0.00  0.00  0.22  0.00
  YS02001655YS02001652    1.00   0.00  0.00  0.00  0.93  0.00  0.00  0.07  0.02  0.00
  YS02001658YS02001655    1.00   0.00  0.05  0.00  0.92  0.04  0.00  0.00  0.09  0.00
  YS02001661YS02001658    1.00   0.05  0.00  0.00  0.90  0.06  0.00  0.00  0.10  0.00
  YS02001664YS02001661    1.00   0.04  0.00  0.00  0.89  0.07  0.00  0.00  0.40  0.00
  YSB1154YSB6556          1.00   0.03  0.00  0.00  0.97  0.00  0.00  0.00  0.02  0.00
  YSB1174YSB1171          1.00   0.02  0.01  0.00  0.97  0.00  0.00  0.00  0.00  0.00
  YSB1171HS02004479       1.00   0.01  0.00  0.00  0.98  0.00  0.00  0.00  0.13  0.00
  HS02004881HS02006253    1.00   0.02  0.00  0.00  0.75  0.00  0.00  0.23  0.46  0.00
  YS02001793JiankangQianchi    1.00   0.00  0.00  0.00  0.62  0.38  0.00  0.00  0.61  0.00
  YS02001757CaochengTiaoxuchi    1.00   0.00  0.08  0.00  0.92  0.00  0.00  0.00  0.00  0.00
  WSF200WS02003060        1.00   0.00  0.01  0.00  0.82  0.17  0.00  0.00  0.48  0.00
  1                       1.00   0.00  0.00  0.00  0.00  1.00  0.00  0.00  0.44  0.00
  
  
  *************************
  Conduit Surcharge Summary
  *************************
  
  ----------------------------------------------------------------------------
                                                           Hours        Hours 
                         --------- Hours Full --------   Above Full   Capacity
  Conduit                Both Ends  Upstream  Dnstream   Normal Flow   Limited
  ----------------------------------------------------------------------------
  WS02006229WS02006228        2.14      2.29      2.14      3.61         2.14
  WS02006256WS02006235        5.23      5.23      6.35      3.24         0.01
  WS02006253WS02006251        0.70      0.70      0.75      0.01         0.01
  WS02006252WS02006251        0.69      0.69      1.44      1.23         0.01
  WS02006251WS02006249        0.70      0.71      0.74      0.50         0.26
  WS02006249WS02006248        0.68      0.68      0.74      3.53         0.01
  WS02006248WS02006247        0.72      0.72      0.82      0.01         0.01
  WS02006247WS02006245        0.78      0.85      0.78      3.63         0.77
  WS02006245WS02006243        0.80      0.81      0.87      0.43         0.23
  WS02006243WS02006242        0.92      0.92      1.42      0.01         0.01
  WS02006242WS02006240        1.16      1.16      1.64      1.55         0.01
  WS02006240WS02006239        1.20      1.24      1.29      0.84         0.37
  WS02006239WS02006238        1.75      1.81      1.88      0.93         0.49
  WS02006238WS02006235        1.80      1.80      2.03      0.01         0.01
  WS02006235WS02006234        1.16      1.16      1.72      5.14         0.01
  WS02006234WS02006232        1.34      1.34      2.04      0.37         0.36
  WS02006232WS02006231        0.50      0.50      2.04      0.46         0.01
  WS02006231WS02006230        0.27      0.27      0.54      5.37         0.01
  WS02006230WS02006229        2.79      3.16      2.79      5.78         2.79
  WS02006228WS02006109        2.22      2.54      2.22      4.63         2.22
  WS02006112WS02006115        0.01      0.01      0.50      0.01         0.01
  WS02006111WS02006112        0.01      0.01      3.94      0.01         0.01
  WS02006110WS02006113        0.01      0.01      2.42      0.01         0.01
  WS02006109WS02006110        0.35      0.35      2.54      0.36         0.01
  WS02004405WS02004406        0.01      0.01      0.01      0.40         0.01
  WS02004404WS02004405        0.01      0.01      0.01      5.74         0.01
  WS02003072WS02003073        0.01      0.01      0.01      5.11         0.01
  YS02001759YS02001757        5.43      5.43      5.52      0.01         0.01
  YS02001762YS02001759        5.39      5.39      5.43      0.01         0.01
  YS02001765YS02001762        5.34      5.34      5.39      0.01         0.01
  YS02001770YS02001767        5.30      5.30      5.30      0.01         0.52
  YS02001774YS02001770        5.24      5.24      5.38      0.01         0.01
  YS02001779YS02001774        4.74      4.74      5.38      0.01         0.01
  YS02001649YS02001757        5.41      5.41      5.52      0.01         0.01
  YS02001767YS02001765        5.30      5.30      5.34      0.01         0.01
  YS02001788YS02001790        0.01      0.01      0.15      0.01         0.01
  YS02001790YS02001791        0.15      0.15      0.19      0.01         0.01
  YS02001791YS02001793        0.19      0.19      0.30      0.01         0.01
  YS02001629YS02163301        5.22      5.22      5.28      0.01         0.01
  YS02001619YS02001622        4.35      4.35      4.38      0.01         0.01
  YS02001622YS02001625        4.38      4.38      5.03      0.01         0.01
  YS02001625YS02001629        4.34      4.34      5.03      0.01         0.01
  YS02163301YS02001633        5.28      5.28      5.35      0.01         0.01
  YS02163601YS02164001        5.35      5.35      5.40      0.01         0.01
  YS02164001YS02001641        5.35      5.35      5.37      0.01         0.01
  YS02001641YS02001644        5.37      5.37      5.37      0.01         0.76
  YS02001647YS02001649        4.98      4.98      5.41      0.01         0.01
  YS02001907YS02006553        0.01      0.01      0.52      0.01         0.01
  YS02001633YS02163601        5.34      5.34      5.40      0.01         0.01
  YS02001644YS02001647        4.98      4.98      5.37      0.01         0.01
  YS02001745YS02001748        0.01      0.01      1.43      0.01         0.01
  YS02001748YS02001751        2.83      2.83      4.40      0.01         0.01
  YS02001751YS02001754        4.40      4.40      4.83      0.01         0.01
  YS02001754YS02001757        4.95      4.95      5.52      0.01         0.01
  YS02001652YS02001649        5.02      5.02      5.41      0.01         0.01
  YS02001655YS02001652        4.46      4.46      4.91      0.01         0.01
  YS02001658YS02001655        1.71      1.71      4.46      0.01         0.01
  YS02001661YS02001658        0.01      0.01      1.71      0.01         0.01
  HS02004881HS02006253        0.01      0.01      0.25      0.01         0.01
  YS02001793JiankangQianchi        0.26      0.26      3.38      0.01         0.01
  YS02001757CaochengTiaoxuchi        3.49      3.49      5.52      0.01         0.01
  
  
  ***************
  Pumping Summary
  ***************
  
  ---------------------------------------------------------------------------------------------------------
                                                  Min       Avg       Max     Total     Power    % Time Off
                        Percent   Number of      Flow      Flow      Flow    Volume     Usage    Pump Curve
  Pump                 Utilized   Start-Ups       LPS       LPS       LPS  10^6 ltr     Kw-hr    Low   High
  ---------------------------------------------------------------------------------------------------------
  CC-Pump-1               48.93           1      0.00    194.42    200.00     2.640      3.88    0.0    0.0
  CC-Pump-2               23.41           4      0.00     89.15    200.00     0.720      1.26    0.0    0.0
  JK-Pump-1               46.82           5      0.00    160.81    300.00     2.236     41.65    0.0    0.0
  JK-Pump-2               38.30           5      0.00    179.21    683.00     2.420     46.51    0.0   96.6
  XR-Pump-1               89.36           4      0.00     89.81     95.00     2.223     44.61    0.0    0.0
  XR-Pump-2               87.24           4      0.00     87.05     95.00     2.081     41.36    0.0    0.0
  XR-Pump-3               85.11           5      0.00     82.80     95.00     1.967     38.99    0.0    0.0
  XR-Pump-4               85.11           5      0.00     82.80     95.00     1.967     38.99    0.0    0.0
  
  
  ***************************
  Link Pollutant Load Summary
  ***************************
  
  ------------------------------------------------------------------------------------------
                                 COD            SS            TN            TP         NH4-N
  Link                            kg            kg            kg            kg            kg
  ------------------------------------------------------------------------------------------
  WS02003066WSF200           412.397       699.396        14.426         1.411         8.014
  WS02006287WS02006284       121.690       210.749         6.549         0.744         3.888
  WS02006284WS02006280       122.115       211.435         6.589         0.749         3.913
  WS02006280WS02006229       122.100       211.407         6.588         0.749         3.912
  WS02006229WS02006228       417.266       707.136        14.128         1.360         7.796
  WS02006256WS02006235        77.143       129.077         2.288         0.206         1.235
  WS02006253WS02006251        20.018        36.001         0.575         0.050         0.304
  WS02006252WS02006251       206.727       345.209         4.908         0.374         2.464
  WS02006251WS02006249       222.278       373.773         5.389         0.417         2.723
  WS02006249WS02006248       220.330       370.481         5.337         0.413         2.696
  WS02006248WS02006247       220.480       370.755         5.343         0.414         2.699
  WS02006247WS02006245       220.439       370.691         5.340         0.413         2.698
  WS02006245WS02006243       220.351       370.601         5.332         0.412         2.693
  WS02006243WS02006242       220.782       371.410         5.342         0.413         2.698
  WS02006242WS02006240       221.662       373.033         5.360         0.415         2.707
  WS02006240WS02006239       223.050       375.516         5.393         0.417         2.724
  WS02006239WS02006238       224.882       378.536         5.459         0.424         2.761
  WS02006238WS02006235       225.733       379.824         5.493         0.427         2.780
  WS02006235WS02006234       297.091       498.919         7.609         0.617         3.922
  WS02006234WS02006232       296.981       498.730         7.611         0.618         3.924
  WS02006232WS02006231       296.666       498.200         7.601         0.617         3.918
  WS02006231WS02006230       296.353       497.648         7.594         0.616         3.915
  WS02006230WS02006229       295.970       497.057         7.583         0.615         3.909
  WS02006228WS02006109       416.586       706.057        14.095         1.356         7.776
  WS02006116WS02004401       422.805       716.491        14.734         1.438         8.178
  WS02006115WS02006116       423.740       718.004        14.768         1.441         8.197
  WS02006113WS02006111       423.043       716.342        14.805         1.446         8.224
  WS02006112WS02006115       424.699       719.599        14.809         1.446         8.221
  WS02006111WS02006112       422.613       715.638        14.789         1.445         8.215
  WS02006110WS02006113       423.423       716.977        14.823         1.448         8.235
  WS02006109WS02006110       424.462       718.691        14.880         1.455         8.268
  WS02004411WS02004412       415.500       704.532        14.548         1.423         8.083
  WS02004401WS02004402       421.746       714.744        14.691         1.434         8.154
  WS02004413WS02003067       413.084       700.512        14.446         1.413         8.025
  WS02004412WS02004413       414.300       702.558        14.505         1.419         8.060
  WS02004410WS02004411       416.396       705.997        14.579         1.426         8.100
  WS02004409WS02004410       417.241       707.388        14.610         1.429         8.118
  WS02004407WS02004409       417.869       708.396        14.630         1.431         8.128
  WS02004406WS02004407       417.962       708.512        14.629         1.431         8.127
  WS02004405WS02004406       419.415       710.903        14.695         1.438         8.166
  WS02004404WS02004405       420.330       712.376        14.703         1.437         8.168
  WS02004403WS02004404       419.839       711.618        14.619         1.426         8.113
  WS02004402WS02004403       420.775       713.164        14.656         1.430         8.134
  WS02004139WS02001211      1360.995      2183.789       126.712        15.761        78.963
  WS02004138WS02004139      1363.903      2188.463       126.975        15.794        79.127
  WS02003067WS02003066       412.539       699.632        14.432         1.411         8.018
  WS02001213WS02003059      1402.346      2249.921       130.706        16.261        81.460
  WS02001212WS02001213      1406.825      2257.103       131.124        16.313        81.721
  WS02001211WS02001212      1407.658      2258.436       131.204        16.323        81.771
  WS02003072WS02003073      1924.759      3125.228       155.846        19.014        96.178
  WS02003069WS02003072      1928.055      3130.511       156.141        19.050        96.361
  WS02003060WS02003069      1927.845      3130.213       156.069        19.040        96.314
  WS02003059WS02003060      1402.654      2250.420       130.729        16.264        81.475
  HS02004901HS02004770         3.186         5.799         0.062         0.004         0.028
  HS02004876HS02004881        12.554        23.118         0.354         0.030         0.185
  HS02004870HS02004876         9.651        17.674         0.306         0.027         0.164
  HS02004842HS02004848         1.767         3.123         0.039         0.003         0.018
  HS02004837HS02004842         6.392        10.488         0.507         0.061         0.311
  HS02004830HS02004837        50.189        82.121         4.263         0.525         2.644
  HS02004824HS02004830        50.939        83.323         4.335         0.534         2.689
  HS02004817HS02004824        57.853        96.019         4.506         0.546         2.776
  HS02004770HS02004777        12.326        22.634         0.266         0.017         0.121
  HS02004799HS02004480        50.771        89.065         2.110         0.223         1.198
  HS02004792HS02004799        47.082        81.853         2.089         0.225         1.197
  HS02004788HS02004792        30.318        52.484         1.619         0.181         0.951
  HS02004785HS02004788        13.825        25.044         0.419         0.037         0.217
  HS02004777HS02004785        13.286        24.173         0.370         0.031         0.187
  HS02004480HS02004478        61.365       109.058         2.245         0.230         1.254
  HS02004479HS02004480        14.857        26.787         0.541         0.057         0.309
  HS02004862HS02004870         7.222        12.942         0.257         0.025         0.140
  HS02004848HS02004852         2.142         3.828         0.047         0.003         0.021
  HS02004856HS02004862         4.123         7.648         0.085         0.005         0.040
  HS02004852HS02004856         2.139         3.821         0.047         0.003         0.021
  HS02004802HS02004478        60.639       102.203         4.331         0.518         2.651
  HS02004478WS02006287       121.872       211.048         6.565         0.746         3.897
  HS02004817HS02004807        56.483        93.828         4.376         0.530         2.695
  HS02004807HS02004802        61.266       103.202         4.392         0.526         2.689
  YS02001759YS02001757       125.175       210.948         2.844         0.203         1.422
  YS02001762YS02001759        66.337       112.674         1.678         0.126         0.860
  YS02001765YS02001762        65.840       111.744         1.692         0.128         0.870
  YS02001770YS02001767        63.518       107.962         1.398         0.089         0.682
  YS02001774YS02001770         3.875         6.561         0.094         0.007         0.048
  YS02001779YS02001774         2.534         4.198         0.122         0.013         0.071
  YS02001649YS02001757       182.691       298.213         3.929         0.281         1.883
  YS02001767YS02001765        65.904       111.795         1.708         0.130         0.880
  YS02006561YS02001783       263.431       440.823         7.239         0.621         3.836
  YS02001783YS02001784       263.355       440.710         7.236         0.621         3.834
  YS02001784YS02001785       270.720       452.510         7.949         0.710         4.280
  YS02001788YS02001790       271.392       453.606         8.023         0.719         4.326
  YS02001790YS02001791       272.411       455.252         8.123         0.732         4.389
  YS02001791YS02001793       272.371       455.197         8.118         0.731         4.386
  YS02001910YS02001907        92.090       151.480         3.594         0.348         2.024
  YS02001786YS02001788       270.954       452.895         7.978         0.714         4.298
  YS02001915YS02001910        91.992       151.275         3.549         0.341         1.994
  YS02001918YS02001915        48.508        76.911         2.567         0.288         1.524
  YS02001923YS02001920        28.493        44.890         0.624         0.044         0.310
  YS02001926YS02001923        28.124        44.296         0.586         0.040         0.285
  YS02001929YS02001926        27.850        43.846         0.554         0.036         0.265
  YS02001920YS02001918        48.430        76.796         2.543         0.284         1.509
  YS02001629YS02163301        31.876        52.216         0.717         0.045         0.331
  YS02001619YS02001622        35.126        57.243         0.793         0.049         0.365
  YS02001622YS02001625        34.298        56.025         0.772         0.048         0.355
  YS02001625YS02001629        33.231        54.448         0.746         0.046         0.344
  YS02163301YS02001633        31.935        52.340         0.717         0.045         0.332
  YS02163601YS02164001        90.078       146.424         1.987         0.142         0.962
  YS02164001YS02001641        89.654       145.746         1.966         0.140         0.950
  YS02001641YS02001644        90.233       146.694         1.968         0.139         0.950
  YS02001647YS02001649       144.463       234.217         3.015         0.213         1.446
  YS02006553YS02006556       191.565       319.517         5.599         0.502         3.022
  YS02006556YS02006558       191.511       319.408         5.569         0.498         3.002
  YSB6556YSB1171               7.735        14.088         0.217         0.021         0.119
  YS02001907YS02006553       191.521       319.464         5.593         0.501         3.019
  YS02006558YS02006561       263.457       440.858         7.239         0.621         3.835
  YS02001633YS02163601        90.699       147.340         1.970         0.138         0.948
  YS02001644YS02001647       145.369       235.577         3.035         0.214         1.455
  YS02001745YS02001748        57.331        95.222         1.890         0.166         1.027
  YS02001748YS02001751        56.398        93.613         1.973         0.179         1.087
  YS02001751YS02001754        55.790        92.678         1.976         0.181         1.091
  YS02001754YS02001757        56.701        94.132         2.143         0.204         1.199
  YS02001882YS02001884         0.642         1.020         0.018         0.002         0.010
  YS02001884YS02001887         2.422         3.993         0.061         0.005         0.032
  YS02001890YS02001895       100.600       169.677         2.031         0.156         1.011
  YS02001895YS02001898       100.464       169.482         2.025         0.156         1.008
  YS02001898YS02001901       100.346       169.315         2.022         0.155         1.006
  YS02001901YS02001904       100.376       169.397         2.040         0.158         1.018
  YS02001904YS02001907       101.049       170.516         2.125         0.169         1.072
  YS02001887YS02001890       101.441       170.977         2.094         0.164         1.050
  YS02001652YS02001649        40.012        66.745         0.941         0.070         0.448
  YS02001655YS02001652        40.606        67.689         0.958         0.071         0.456
  YS02001658YS02001655        39.934        66.570         0.859         0.058         0.392
  YS02001661YS02001658        42.024        69.863         0.906         0.061         0.413
  YS02001664YS02001661        50.719        83.175         1.113         0.074         0.506
  YSB1154YSB6556               7.245        13.309         0.157         0.013         0.081
  YSB1174YSB1171               5.282         9.748         0.147         0.014         0.080
  YSB1171HS02004479           14.770        26.657         0.532         0.056         0.304
  HS02004881HS02006253        14.086        26.067         0.376         0.031         0.194
  YS02001793JiankangQianchi       272.326       455.158         8.112         0.731         4.382
  YS02001757CaochengTiaoxuchi       359.006       595.248         8.576         0.650         4.303
  WSF200WS02003060           412.189       699.038        14.435         1.412         8.021
  1                         1937.884      3146.108       157.255        19.192        97.064
  CC-Pump-1                  161.998       270.429         3.844         0.292         1.929
  CC-Pump-2                   44.715        74.757         1.064         0.081         0.534
  JK-Pump-1                   78.952       131.851         2.310         0.206         1.242
  JK-Pump-2                   88.446       150.286         2.472         0.217         1.320
  XR-Pump-1                  370.408       594.339        34.476         4.288        21.484
  XR-Pump-2                  344.864       553.379        32.095         3.992        20.000
  XR-Pump-3                  326.040       523.138        30.363         3.777        18.922
  XR-Pump-4                  326.040       523.138        30.363         3.777        18.922
  

  Analysis begun on:  Sun Jul 11 15:39:53 2021
  Analysis ended on:  Sun Jul 11 15:39:56 2021
  Total elapsed time: 00:00:03