
  EPA STORM WATER MANAGEMENT MODEL - VERSION 5.1 (Build 5.3.0.dev0)
  --------------------------------------------------------------

  WARNING 04: minimum elevation drop used for Conduit WS02004404WS02004405
  WARNING 03: negative offset ignored for Link YS02001904YS02001907
  
  *********************************************************
  NOTE: The summary statistics displayed in this report are
  based on results found at every computational time step,  
  not just on results from each reporting time step.
  *********************************************************
  
  ****************
  Analysis Options
  ****************
  Flow Units ............... LPS
  Process Models:
    Rainfall/Runoff ........ YES
    RDII ................... NO
    Snowmelt ............... NO
    Groundwater ............ NO
    Flow Routing ........... YES
    Ponding Allowed ........ NO
    Water Quality .......... YES
  Infiltration Method ...... HORTON
  Flow Routing Method ...... DYNWAVE
  Surcharge Method ......... EXTRAN
  Starting Date ............ 08/28/2015 08:00:00
  Ending Date .............. 08/28/2015 15:50:00
  Antecedent Dry Days ...... 8.0
  Report Time Step ......... 00:01:00
  Wet Time Step ............ 00:01:00
  Dry Time Step ............ 00:01:00
  Routing Time Step ........ 5.00 sec
  Variable Time Step ....... YES
  Maximum Trials ........... 8
  Number of Threads ........ 4
  Head Tolerance ........... 0.001500 m
  
  
  **************************        Volume         Depth
  Runoff Quantity Continuity     hectare-m            mm
  **************************     ---------       -------
  Total Precipitation ......         2.606         5.704
  Evaporation Loss .........         0.000         0.000
  Infiltration Loss ........         0.561         1.229
  Surface Runoff ...........         1.510         3.306
  Final Storage ............         0.535         1.170
  Continuity Error (%) .....        -0.022
  
  
  **************************           COD            SS            TN            TP         NH4-N
  Runoff Quality Continuity             kg            kg            kg            kg            kg
  **************************    ----------    ----------    ----------    ----------    ----------
  Initial Buildup ..........     41378.656     70582.865      1804.177       168.684      1032.807
  Surface Buildup ..........        14.984        19.577         2.992         0.276         1.770
  Wet Deposition ...........         0.000         0.000         0.000         0.000         0.000
  Sweeping Removal .........         0.000         0.000         0.000         0.000         0.000
  Infiltration Loss ........        27.328        48.049         0.541         0.036         0.254
  BMP Removal ..............         0.000         0.000         0.000         0.000         0.000
  Surface Runoff ...........       902.424      1539.396        18.273         1.185         8.612
  Remaining Buildup ........     40463.596     69014.503      1788.349       167.738      1025.708
  Continuity Error (%) .....         0.001         0.001         0.000         0.000         0.000
  
  
  **************************        Volume        Volume
  Flow Routing Continuity        hectare-m      10^6 ltr
  **************************     ---------     ---------
  Dry Weather Inflow .......         0.616         6.165
  Wet Weather Inflow .......         1.509        15.094
  Groundwater Inflow .......         0.000         0.000
  RDII Inflow ..............         0.000         0.000
  External Inflow ..........         0.102         1.024
  External Outflow .........         1.646        16.464
  Flooding Loss ............         0.293         2.930
  Evaporation Loss .........         0.000         0.000
  Exfiltration Loss ........         0.000         0.000
  Initial Stored Volume ....         0.076         0.761
  Final Stored Volume ......         0.511         5.110
  Continuity Error (%) .....        -6.343
  
  
  **************************           COD            SS            TN            TP         NH4-N
  Quality Routing Continuity            kg            kg            kg            kg            kg
  **************************    ----------    ----------    ----------    ----------    ----------
  Dry Weather Inflow .......      1541.201      2465.922       147.955        18.494        92.472
  Wet Weather Inflow .......       902.097      1538.879        18.266         1.185         8.609
  Groundwater Inflow .......         0.000         0.000         0.000         0.000         0.000
  RDII Inflow ..............         0.000         0.000         0.000         0.000         0.000
  External Inflow ..........       183.418       293.469        17.608         2.201        11.005
  External Outflow .........      1940.033      3166.731       153.115        18.614        94.313
  Flooding Loss ............       121.388       206.381         3.295         0.284         1.745
  Exfiltration Loss ........         0.000         0.000         0.000         0.000         0.000
  Mass Reacted .............         0.000         0.000         0.000         0.000         0.000
  Initial Stored Mass ......         0.000         0.000         0.000         0.000         0.000
  Final Stored Mass ........       343.081       558.156        15.379         1.624         8.873
  Continuity Error (%) .....         8.460         8.538         6.550         6.204         6.384
  
  
  *************************
  Highest Continuity Errors
  *************************
  Node YS02001774 (35.61%)
  Node JK-storage (-27.51%)
  Node HS02004842 (24.91%)
  Node YS02001884 (19.30%)
  Node YSB1171 (5.73%)
  
  
  ***************************
  Time-Step Critical Elements
  ***************************
  Link WS02006252WS02006251 (73.79%)
  Link WS02006280WS02006229 (7.75%)
  Link WS02006238WS02006235 (5.57%)
  Link YS02001793JiankangQianchi (4.61%)
  Link WS02004404WS02004405 (1.24%)
  
  
  ********************************
  Highest Flow Instability Indexes
  ********************************
  Link WS02006113WS02006111 (44)
  Link YS02001779YS02001774 (33)
  Link YS02001774YS02001770 (29)
  Link YS02001619YS02001622 (26)
  Link WS02006111WS02006112 (23)
  
  
  *************************
  Routing Time Step Summary
  *************************
  Minimum Time Step           :     0.50 sec
  Average Time Step           :     1.12 sec
  Maximum Time Step           :     5.00 sec
  Percent in Steady State     :    -0.00
  Average Iterations per Step :     4.32
  Percent Not Converging      :    22.39
  
  
  ***************************
  Subcatchment Runoff Summary
  ***************************
  
  ------------------------------------------------------------------------------------------------------------------------------
                            Total      Total      Total      Total     Imperv       Perv      Total       Total     Peak  Runoff
                           Precip      Runon       Evap      Infil     Runoff     Runoff     Runoff      Runoff   Runoff   Coeff
  Subcatchment                 mm         mm         mm         mm         mm         mm         mm    10^6 ltr      LPS
  ------------------------------------------------------------------------------------------------------------------------------
  sub0                       5.70       0.00       0.00       0.40       5.26       0.00       5.26        0.00     1.76   0.923
  sub1                       5.70       0.00       0.00       0.63       4.99       0.00       4.99        0.03    10.00   0.875
  sub2                       5.70       0.00       0.00       2.11       3.51       0.00       3.52        0.03     8.93   0.616
  sub3                       5.70       0.00       0.00       2.11       3.48       0.00       3.48        0.08    18.51   0.610
  sub4                       5.70       0.00       0.00       0.63       4.85       0.00       4.85        0.10    20.80   0.850
  sub5                       5.70       0.00       0.00       0.40       5.21       0.00       5.22        0.06    17.78   0.914
  sub7                       5.70       0.00       0.00       0.51       5.13       0.00       5.13        0.02     6.10   0.900
  sub8                       5.70       0.00       0.00       0.51       5.12       0.00       5.12        0.03    10.90   0.898
  sub9                       5.70       0.00       0.00       0.51       5.12       0.00       5.12        0.02     8.10   0.898
  sub10                      5.70       0.00       0.00       0.46       5.16       0.00       5.17        0.06    17.68   0.906
  sub11                      5.70       0.00       0.00       0.45       5.18       0.00       5.18        0.06    20.43   0.908
  sub12                      5.70       0.00       0.00       0.74       4.92       0.00       4.92        0.04    16.67   0.862
  sub14                      5.70       0.00       0.00       0.51       5.12       0.00       5.12        0.05    15.85   0.897
  sub15                      5.70       0.00       0.00       1.71       3.93       0.00       3.93        0.07    21.58   0.690
  sub16                      5.70       0.00       0.00       1.88       3.78       0.00       3.78        0.04    14.81   0.663
  sub17                      5.70       0.00       0.00       1.82       3.84       0.00       3.84        0.03    12.06   0.673
  sub22                      5.70       0.00       0.00       2.45       3.21       0.00       3.21        0.20    69.69   0.563
  sub23                      5.70       0.00       0.00       2.11       3.55       0.00       3.55        0.17    59.12   0.623
  sub60                      5.70       0.00       0.00       0.68       3.63       0.00       3.63        1.10   103.27   0.637
  sub61                      5.70       0.00       0.00       0.97       3.83       0.00       3.83        1.18   130.65   0.672
  sub62                      5.70       0.00       0.00       0.46       4.12       0.00       4.12        1.27   133.19   0.723
  sub63                      5.70       0.00       0.00       1.65       3.39       0.00       3.40        1.03   122.35   0.595
  sub64                      5.70       0.00       0.00       0.86       3.47       0.00       3.47        1.06    98.04   0.609
  sub65                      5.70       0.00       0.00       0.74       3.52       0.00       3.52        1.08    99.43   0.617
  sub66                      5.70       0.00       0.00       1.65       3.02       0.00       3.02        0.93    90.08   0.529
  sub67                      5.70       0.00       0.00       0.46       4.48       0.00       4.48        1.38   172.31   0.786
  sub68                      5.70       0.00       0.00       0.80       4.06       0.00       4.06        1.25   144.75   0.712
  sub69                      5.70       0.00       0.00       0.86       4.33       0.00       4.33        1.01   144.98   0.760
  sub70                      5.70       4.42       0.00       3.44       5.46       0.01       5.47        1.25   117.52   0.540
  sub71                      5.70       0.00       0.00       0.46       3.96       0.00       3.96        0.94    92.68   0.695
  sub72                      5.70       0.00       0.00       0.40       2.88       0.00       2.88        0.59    44.34   0.506
  1                          5.70       5.32       0.00       1.32       5.68       0.92       6.60        1.55   113.61   0.598
  2                          5.70       0.00       0.00       2.90       1.30       0.32       1.62        0.65    89.22   0.284
  
  
  ****************************
  Subcatchment Washoff Summary
  ****************************
  
  ------------------------------------------------------------------------------------------
                                 COD            SS            TN            TP         NH4-N
  Subcatchment                    kg            kg            kg            kg            kg
  ------------------------------------------------------------------------------------------
  sub0                         0.879         1.648         0.014         0.001         0.007
  sub1                         3.523         6.669         0.066         0.004         0.031
  sub2                         2.005         3.647         0.044         0.003         0.020
  sub3                         4.828         8.653         0.106         0.007         0.048
  sub4                         7.645        14.326         0.157         0.009         0.075
  sub5                         8.122        15.189         0.142         0.011         0.068
  sub7                         1.879         3.637         0.035         0.002         0.017
  sub8                         2.824         5.570         0.057         0.003         0.027
  sub9                         2.393         4.654         0.047         0.003         0.022
  sub10                        6.749        12.796         0.123         0.009         0.059
  sub11                        6.725        12.948         0.125         0.008         0.060
  sub12                        5.654        10.723         0.101         0.007         0.048
  sub14                        5.077         9.782         0.096         0.006         0.046
  sub15                        5.936        10.888         0.116         0.008         0.054
  sub16                        3.797         6.985         0.073         0.005         0.034
  sub17                        3.476         6.334         0.064         0.005         0.030
  sub22                       17.518        31.464         0.339         0.025         0.157
  sub23                       10.777        20.097         0.239         0.015         0.108
  sub60                       57.922        97.961         1.233         0.071         0.588
  sub61                       73.614       124.286         1.428         0.093         0.684
  sub62                       77.600       133.390         1.600         0.095         0.765
  sub63                       55.254        92.167         1.190         0.080         0.543
  sub64                       68.924       112.157         1.321         0.092         0.625
  sub65                       70.660       115.483         1.366         0.093         0.648
  sub66                       41.633        68.541         0.930         0.058         0.429
  sub67                      116.966       199.978         2.126         0.150         1.023
  sub68                       82.898       141.755         1.663         0.106         0.789
  sub69                       78.034       135.854         1.511         0.102         0.717
  sub70                      117.757       204.265         2.477         0.164         1.143
  sub71                       51.318        88.875         1.133         0.061         0.540
  sub72                       33.610        53.608         0.663         0.043         0.317
  1                           62.698       109.624         1.365         0.091         0.620
  2                            9.521        15.559         0.310         0.018         0.129
  ------------------------------------------------------------------------------------------
  System                    1098.215      1879.515        22.261         1.451        10.472
  
  
  ******************
  Node Depth Summary
  ******************
  
  ---------------------------------------------------------------------------------
                                 Average  Maximum  Maximum  Time of Max    Reported
                                   Depth    Depth      HGL   Occurrence   Max Depth
  Node                 Type       Meters   Meters   Meters  days hr:min      Meters
  ---------------------------------------------------------------------------------
  WS02001211           JUNCTION     0.71     0.79     5.63     0  06:21        0.79
  WS02001212           JUNCTION     0.42     0.51     5.57     0  06:20        0.51
  WS02001213           JUNCTION     0.67     0.76     5.52     0  06:20        0.76
  WS02003069           JUNCTION     0.47     0.58     5.17     0  06:19        0.58
  WS02003072           JUNCTION     0.54     0.64     5.01     0  06:20        0.64
  WS02003073           JUNCTION     0.33     0.39     4.46     0  06:20        0.39
  WS02003060           JUNCTION     0.42     0.52     5.45     0  06:18        0.52
  WS02003066           JUNCTION     0.24     0.30     5.85     0  04:37        0.30
  WS02003059           JUNCTION     0.72     0.81     5.50     0  06:19        0.81
  WS02003067           JUNCTION     0.58     0.70     6.02     0  04:37        0.70
  WS02004401           JUNCTION     0.69     0.86     6.86     0  04:35        0.86
  WS02004402           JUNCTION     0.72     0.88     6.84     0  04:35        0.88
  WS02004403           JUNCTION     0.74     0.90     6.83     0  04:35        0.90
  WS02004404           JUNCTION     0.82     0.97     6.82     0  04:35        0.97
  WS02004406           JUNCTION     0.82     0.96     6.79     0  04:35        0.96
  WS02004409           JUNCTION     0.51     0.67     6.44     0  04:36        0.67
  WS02004410           JUNCTION     0.53     0.69     6.41     0  04:36        0.69
  WS02004411           JUNCTION     0.54     0.70     6.38     0  04:37        0.70
  WS02004412           JUNCTION     0.55     0.70     6.34     0  04:37        0.70
  WS02004413           JUNCTION     0.71     0.86     6.33     0  04:37        0.86
  WS02004405           JUNCTION     0.81     0.96     6.81     0  04:35        0.96
  WS02006109           JUNCTION     0.77     0.99     7.61     0  04:31        0.99
  WS02006110           JUNCTION     0.76     0.93     7.52     0  04:59        0.93
  WS02006111           JUNCTION     0.22     0.29     7.00     0  04:32        0.29
  WS02006112           JUNCTION     0.86     1.10     6.98     0  06:16        1.06
  WS02006113           JUNCTION     0.35     0.46     7.35     0  04:30        0.46
  WS02006115           JUNCTION     0.58     0.76     6.90     0  04:34        0.76
  WS02006116           JUNCTION     0.66     0.84     6.88     0  04:34        0.84
  WS02006230           JUNCTION     0.76     1.12     7.87     0  04:58        1.12
  WS02006231           JUNCTION     0.52     0.87     7.99     0  04:58        0.87
  WS02006232           JUNCTION     0.66     1.07     8.11     0  04:58        1.06
  WS02006234           JUNCTION     0.60     1.08     8.24     0  06:09        1.07
  WS02006235           JUNCTION     0.64     1.17     8.33     0  06:09        1.16
  WS02006238           JUNCTION     0.67     1.20     8.34     0  04:31        1.19
  WS02006240           JUNCTION     0.58     1.14     8.44     0  04:58        1.14
  WS02006242           JUNCTION     0.64     1.23     8.50     0  06:09        1.22
  WS02006243           JUNCTION     0.53     1.14     8.56     0  06:09        1.12
  WS02006245           JUNCTION     0.51     1.12     8.60     0  06:09        1.11
  WS02006247           JUNCTION     0.53     1.14     8.64     0  06:10        1.13
  WS02006248           JUNCTION     0.47     1.08     8.67     0  06:08        1.08
  WS02006249           JUNCTION     0.50     1.09     8.69     0  04:27        1.09
  WS02006239           JUNCTION     0.63     1.18     8.39     0  06:09        1.17
  WS02006251           JUNCTION     0.48     1.27     8.94     0  04:58        1.16
  WS02006252           JUNCTION     0.34     0.80     9.05     0  04:58        0.69
  WS02006253           JUNCTION     0.51     1.32     8.97     0  04:58        1.19
  WS02006256           JUNCTION     1.43     2.35     9.28     0  00:00        2.35
  WS02004138           JUNCTION     0.16     0.20     7.45     0  00:00        0.19
  WS02004139           JUNCTION     0.65     0.74     5.65     0  06:21        0.74
  WS02004407           JUNCTION     0.23     0.30     6.61     0  04:36        0.30
  WS02006228           JUNCTION     0.77     1.04     7.69     0  04:59        1.03
  WS02006229           JUNCTION     0.75     1.03     7.72     0  04:28        1.03
  WS02006280           JUNCTION     0.05     0.17     8.44     0  02:13        0.17
  WS02006284           JUNCTION     0.34     0.51     8.91     0  02:12        0.51
  WS02006287           JUNCTION     0.07     0.24     9.20     0  02:12        0.24
  WSF200               JUNCTION     0.22     0.31     5.55     0  04:39        0.31
  HS02004901           JUNCTION     0.10     0.25    10.08     0  02:10        0.25
  HS02004881           JUNCTION     0.00     0.03     9.06     0  02:12        0.03
  HS02004876           JUNCTION     0.03     0.11     9.14     0  02:08        0.11
  HS02004870           JUNCTION     0.01     0.05     9.34     0  02:12        0.05
  HS02004862           JUNCTION     0.01     0.06     9.44     0  02:13        0.06
  HS02004856           JUNCTION     0.07     0.11     9.54     0  02:13        0.11
  HS02004852           JUNCTION     0.01     0.03     9.55     0  02:13        0.03
  HS02004848           JUNCTION     0.01     0.03     9.63     0  02:12        0.03
  HS02004842           JUNCTION     0.33     0.36     9.63     0  02:12        0.36
  HS02004837           JUNCTION     0.02     0.05     9.63     0  02:12        0.05
  HS02004830           JUNCTION     0.03     0.07     9.54     0  02:12        0.07
  HS02004824           JUNCTION     0.02     0.05     9.45     0  02:15        0.05
  HS02004817           JUNCTION     0.42     0.55     9.40     0  02:13        0.55
  HS02004807           JUNCTION     0.11     0.23     9.40     0  02:13        0.23
  HS02004802           JUNCTION     0.14     0.26     9.39     0  02:13        0.26
  HS02004799           JUNCTION     0.09     0.29     9.50     0  02:11        0.29
  HS02004792           JUNCTION     0.02     0.12     9.64     0  02:10        0.12
  HS02004788           JUNCTION     0.02     0.09     9.99     0  02:11        0.09
  HS02004785           JUNCTION     0.03     0.15    10.05     0  02:11        0.15
  HS02004777           JUNCTION     0.13     0.27    10.07     0  02:10        0.27
  HS02004770           JUNCTION     0.10     0.25    10.08     0  02:10        0.25
  HS02004480           JUNCTION     0.05     0.23     9.47     0  02:11        0.23
  HS02004479           JUNCTION     0.09     0.27     9.47     0  02:11        0.27
  HS02004478           JUNCTION     0.05     0.15     9.38     0  02:12        0.15
  YS02001745           JUNCTION     0.62     0.84     8.36     0  04:50        0.84
  YS02001748           JUNCTION     1.02     1.28     8.36     0  04:58        1.28
  YS02001751           JUNCTION     1.21     1.48     8.36     0  04:58        1.48
  YS02001754           JUNCTION     1.46     1.76     8.37     0  04:58        1.75
  YS02001762           JUNCTION     1.66     2.01     8.41     0  04:34        1.97
  YS02001765           JUNCTION     1.61     1.96     8.41     0  04:34        1.92
  YS02001767           JUNCTION     1.57     1.92     8.41     0  04:34        1.88
  YS02001770           JUNCTION     1.57     1.91     8.41     0  04:34        1.88
  YS02001774           JUNCTION     1.63     1.97     8.40     0  04:34        1.95
  YS02001779           JUNCTION     1.38     1.68     8.37     0  04:02        1.68
  YS02001882           JUNCTION     0.29     0.54     7.26     0  02:41        0.54
  YS02001884           JUNCTION     0.39     0.64     7.26     0  02:41        0.64
  YS02001759           JUNCTION     1.69     2.03     8.39     0  04:34        1.99
  YS02001887           JUNCTION     0.46     0.72     7.26     0  02:42        0.72
  YS02001890           JUNCTION     0.50     0.75     7.26     0  02:40        0.75
  YS02001898           JUNCTION     0.26     0.50     7.24     0  02:42        0.50
  YS02001901           JUNCTION     0.38     0.63     7.24     0  02:43        0.63
  YS02001904           JUNCTION     0.36     0.61     7.24     0  02:43        0.61
  YS02001907           JUNCTION     0.69     0.95     7.24     0  02:41        0.95
  YS02001910           JUNCTION     0.48     0.73     7.24     0  02:42        0.73
  YS02001915           JUNCTION     0.28     0.52     7.24     0  02:42        0.52
  YS02001918           JUNCTION     0.09     0.17     7.24     0  02:42        0.17
  YS02001619           JUNCTION     1.17     1.50     8.43     0  05:52        1.49
  YS02001629           JUNCTION     1.52     1.85     8.40     0  04:08        1.85
  YS02001641           JUNCTION     1.62     1.95     8.39     0  05:52        1.93
  YS02001644           JUNCTION     1.63     1.92     8.35     0  03:55        1.92
  YS02001652           JUNCTION     1.47     1.80     8.40     0  04:05        1.79
  YS02001655           JUNCTION     1.23     1.57     8.42     0  04:05        1.55
  YS02001920           JUNCTION     0.19     0.25     7.26     0  02:44        0.25
  YS02001923           JUNCTION     0.07     0.10     7.36     0  03:01        0.10
  YS02001926           JUNCTION     0.15     0.20     7.64     0  03:01        0.20
  YS02001929           JUNCTION     0.07     0.10     7.79     0  03:01        0.10
  YS02001658           JUNCTION     0.96     1.29     8.43     0  04:06        1.28
  YS02001661           JUNCTION     0.73     1.04     8.45     0  04:06        1.03
  YS02001664           JUNCTION     0.28     0.53     8.45     0  04:06        0.52
  YS02001622           JUNCTION     1.19     1.51     8.42     0  05:52        1.51
  YS02001633           JUNCTION     1.61     1.98     8.43     0  05:52        1.94
  YS02001649           JUNCTION     1.66     1.99     8.38     0  04:05        1.97
  YS02001757           JUNCTION     1.79     2.11     8.37     0  04:57        2.09
  YS02001895           JUNCTION     0.26     0.50     7.25     0  02:40        0.50
  YS02001625           JUNCTION     1.47     1.78     8.38     0  03:51        1.78
  YS02163301           JUNCTION     1.55     1.91     8.42     0  05:52        1.89
  YS02163601           JUNCTION     1.66     2.03     8.43     0  05:52        1.98
  YS02164001           JUNCTION     1.60     1.96     8.41     0  05:52        1.91
  YS02001647           JUNCTION     1.46     1.76     8.37     0  04:57        1.75
  YSB1154              JUNCTION     0.23     0.42     9.47     0  02:11        0.42
  YSB6556              JUNCTION     0.12     0.30     9.47     0  02:11        0.30
  YSB1174              JUNCTION     0.18     0.36     9.47     0  02:11        0.36
  YSB1171              JUNCTION     0.38     0.57     9.47     0  02:11        0.57
  YS02006553           JUNCTION     0.70     0.95     7.23     0  02:41        0.95
  YS02006561           JUNCTION     0.14     0.27     6.93     0  02:34        0.27
  YS02006556           JUNCTION     0.67     0.92     7.23     0  02:42        0.92
  YS02006558           JUNCTION     0.71     0.96     7.23     0  02:42        0.96
  YS02001783           JUNCTION     0.25     0.48     6.62     0  02:41        0.48
  YS02001784           JUNCTION     0.28     0.50     6.57     0  02:42        0.50
  YS02001786           JUNCTION     0.24     0.45     6.48     0  03:14        0.44
  YS02001788           JUNCTION     0.18     0.41     6.39     0  03:14        0.40
  YS02001790           JUNCTION     0.23     1.96     7.60     0  04:17        0.75
  YS02001791           JUNCTION     0.18     2.14     7.61     0  04:13        0.89
  YS02001793           JUNCTION     0.22     2.02     6.85     0  04:13        1.52
  WSC                  OUTFALL      0.32     0.39     1.06     0  06:21        0.39
  JK-storage           STORAGE      1.82     5.56     6.36     0  03:13        5.55
  CC-storage           STORAGE      1.06     1.35     8.35     0  04:52        1.35
  XR-storage           STORAGE      2.05     5.00     3.00     0  00:00        4.91
  
  
  *******************
  Node Inflow Summary
  *******************
  
  -------------------------------------------------------------------------------------------------
                                  Maximum  Maximum                  Lateral       Total        Flow
                                  Lateral    Total  Time of Max      Inflow      Inflow     Balance
                                   Inflow   Inflow   Occurrence      Volume      Volume       Error
  Node                 Type           LPS      LPS  days hr:min    10^6 ltr    10^6 ltr     Percent
  -------------------------------------------------------------------------------------------------
  WS02001211           JUNCTION      7.35   388.93     0  03:12       0.207        8.52       0.104
  WS02001212           JUNCTION      0.00   390.40     0  03:11           0        8.52       0.095
  WS02001213           JUNCTION      0.00   391.91     0  03:11           0        8.51       0.139
  WS02003069           JUNCTION      0.32   942.32     0  06:19     0.00902        16.5       0.081
  WS02003072           JUNCTION      0.00   942.12     0  06:19           0        16.5       0.121
  WS02003073           JUNCTION      1.82   943.83     0  06:20      0.0514        16.5       0.126
  WS02003060           JUNCTION     16.53   942.13     0  06:18       0.466        16.5       0.078
  WS02003066           JUNCTION      0.00   546.34     0  04:37           0        7.54       0.041
  WS02003059           JUNCTION      0.00   394.43     0  03:10           0         8.5       0.226
  WS02003067           JUNCTION      0.00   546.29     0  04:37           0        7.54       0.092
  WS02004401           JUNCTION      0.00   548.45     0  04:34           0        7.72       0.216
  WS02004402           JUNCTION      0.00   548.36     0  04:34           0         7.7       0.209
  WS02004403           JUNCTION      0.00   548.21     0  04:34           0        7.69       0.194
  WS02004404           JUNCTION      0.16   548.42     0  04:35     0.00457        7.68       0.150
  WS02004406           JUNCTION      0.00   548.21     0  04:35           0        7.65       0.367
  WS02004409           JUNCTION      0.00   548.02     0  04:36           0        7.62       0.133
  WS02004410           JUNCTION      0.00   547.39     0  04:36           0        7.61       0.158
  WS02004411           JUNCTION      0.00   546.93     0  04:36           0        7.59       0.169
  WS02004412           JUNCTION      0.00   546.59     0  04:37           0        7.58       0.193
  WS02004413           JUNCTION      0.00   546.45     0  04:37           0        7.57       0.301
  WS02004405           JUNCTION      0.04   548.42     0  04:35     0.00107        7.67       0.229
  WS02006109           JUNCTION      1.23   550.29     0  04:29      0.0347        7.78       0.226
  WS02006110           JUNCTION      0.00   549.89     0  04:29           0        7.77       0.216
  WS02006111           JUNCTION      0.00   572.57     0  04:32           0        7.74       0.040
  WS02006112           JUNCTION     12.06   556.18     0  04:32      0.0329        7.77       0.297
  WS02006113           JUNCTION      0.00   550.19     0  04:29           0        7.75       0.095
  WS02006115           JUNCTION      0.00   558.77     0  06:14           0        7.75       0.189
  WS02006116           JUNCTION      0.00   549.84     0  04:32           0        7.73       0.188
  WS02006230           JUNCTION     10.28   534.93     0  06:09        0.29        6.71       0.162
  WS02006231           JUNCTION      0.00   524.21     0  06:09           0        6.43       0.144
  WS02006232           JUNCTION      0.00   523.78     0  06:10           0        6.44       0.231
  WS02006234           JUNCTION      0.00   524.25     0  06:10           0        6.44       0.093
  WS02006235           JUNCTION      0.00   525.12     0  06:10           0        6.51       0.137
  WS02006238           JUNCTION      0.00   381.63     0  07:20           0        4.06       0.075
  WS02006240           JUNCTION      0.00   383.75     0  07:20           0        4.02       0.255
  WS02006242           JUNCTION      0.00   383.61     0  07:20           0        4.01       0.315
  WS02006243           JUNCTION      0.00   383.72     0  07:20           0           4       0.004
  WS02006245           JUNCTION      0.00   384.06     0  07:20           0           4       0.241
  WS02006247           JUNCTION      0.00   386.01     0  07:13           0        4.01       0.164
  WS02006248           JUNCTION      0.00   390.18     0  07:13           0        4.01       0.104
  WS02006249           JUNCTION      0.00   404.32     0  06:29           0        4.08       0.241
  WS02006239           JUNCTION      0.00   382.13     0  07:20           0        4.04      -0.021
  WS02006251           JUNCTION      0.08   402.60     0  04:30     0.00217        4.14       0.205
  WS02006252           JUNCTION      0.00   400.00     0  07:10           0         3.9       0.012
  WS02006253           JUNCTION      1.76    56.06     0  02:11     0.00426       0.241       1.696
  WS02006256           JUNCTION      0.00   983.00     0  00:00           0        5.32      -0.015
  WS02004138           JUNCTION      0.00   380.00     0  00:00           0        8.32       0.024
  WS02004139           JUNCTION      0.32   396.51     0  00:00     0.00905        8.33       0.199
  WS02004407           JUNCTION      0.00   548.05     0  04:35           0        7.62       0.062
  WS02006228           JUNCTION      0.00   549.28     0  04:29           0        7.76       0.181
  WS02006229           JUNCTION      0.00   548.18     0  04:29           0        7.78       0.159
  WS02006280           JUNCTION      0.00   279.03     0  02:13           0        1.08       0.006
  WS02006284           JUNCTION      0.10   279.00     0  02:12      0.0027        1.08       0.109
  WS02006287           JUNCTION      0.00   278.86     0  02:12           0        1.08       0.066
  WSF200               JUNCTION      0.00   546.34     0  04:38           0        7.53       0.035
  HS02004901           JUNCTION     14.81    14.81     0  02:06      0.0396      0.0398       4.624
  HS02004881           JUNCTION      6.10    54.62     0  02:11      0.0173       0.183       0.069
  HS02004876           JUNCTION     10.00    48.75     0  02:12      0.0332       0.166       0.318
  HS02004870           JUNCTION     10.90    38.99     0  02:12      0.0327       0.133       0.080
  HS02004862           JUNCTION      9.13    28.78     0  02:12      0.0384       0.101       0.168
  HS02004856           JUNCTION      8.10    19.75     0  02:12      0.0246      0.0637       2.308
  HS02004852           JUNCTION      0.00    12.15     0  02:12           0      0.0392       0.130
  HS02004848           JUNCTION     18.51    18.51     0  02:14      0.0783      0.0783       0.056
  HS02004842           JUNCTION      0.00     6.94     0  02:22           0      0.0522      33.167
  HS02004837           JUNCTION     24.03    29.96     0  02:11       0.236       0.275       0.296
  HS02004830           JUNCTION      0.15    30.09     0  02:12     0.00423       0.266       0.466
  HS02004824           JUNCTION     20.85    50.75     0  02:14       0.103       0.367       0.147
  HS02004817           JUNCTION      0.60    51.35     0  02:15      0.0169       0.383       4.545
  HS02004807           JUNCTION     20.43    70.16     0  02:13      0.0602       0.427       1.000
  HS02004802           JUNCTION      0.00    70.58     0  02:14           0       0.423       0.971
  HS02004799           JUNCTION     15.85   177.85     0  02:10      0.0487       0.577       0.410
  HS02004792           JUNCTION     69.97   162.29     0  02:10       0.211       0.529       0.078
  HS02004788           JUNCTION     23.25    94.35     0  02:10       0.115       0.319       0.123
  HS02004785           JUNCTION      0.15    71.49     0  02:10     0.00423       0.206       0.233
  HS02004777           JUNCTION      0.03    71.86     0  02:09    0.000846       0.206       2.572
  HS02004770           JUNCTION     59.12    72.92     0  02:08       0.169       0.207       1.516
  HS02004480           JUNCTION      0.00   209.80     0  02:11           0       0.676       0.110
  HS02004479           JUNCTION      0.00    32.74     0  02:12           0       0.111       0.660
  HS02004478           JUNCTION      0.00   278.84     0  02:12           0        1.08       0.051
  YS02001745           JUNCTION    103.28   122.01     0  03:07         1.1         1.1       0.706
  YS02001748           JUNCTION      0.04   363.26     0  02:56     0.00127        1.11       1.958
  YS02001751           JUNCTION      0.01   402.90     0  02:56     0.00031        1.09       1.971
  YS02001754           JUNCTION      0.26   180.65     0  02:57     0.00733        1.06       2.311
  YS02001762           JUNCTION      0.00   173.88     0  02:57           0         1.2       1.787
  YS02001765           JUNCTION      0.00   169.66     0  02:57           0         1.2       2.054
  YS02001767           JUNCTION      0.54   168.28     0  02:57      0.0151        1.22       3.010
  YS02001770           JUNCTION    133.34   171.45     0  02:57        1.27        1.29       2.507
  YS02001774           JUNCTION      0.00    50.14     0  02:56           0      0.0704      55.294
  YS02001779           JUNCTION      0.01    49.39     0  02:56    0.000141      0.0286     112.169
  YS02001882           JUNCTION      0.00     4.90     0  02:05           0     0.00675      36.028
  YS02001884           JUNCTION      0.00    13.87     0  02:05           0      0.0265      23.919
  YS02001759           JUNCTION    130.69   301.60     0  02:57        1.18        2.34       0.988
  YS02001887           JUNCTION    172.76   175.42     0  02:34         1.4        1.41       0.528
  YS02001890           JUNCTION      0.00   173.41     0  02:34           0        1.38       0.590
  YS02001898           JUNCTION      0.00   173.79     0  02:34           0        1.37       0.176
  YS02001901           JUNCTION      0.00   172.82     0  02:36           0        1.37       0.426
  YS02001904           JUNCTION      0.00   173.40     0  02:36           0        1.37       0.394
  YS02001907           JUNCTION      0.00   307.96     0  02:35           0        2.95       0.768
  YS02001910           JUNCTION      0.00   141.75     0  03:00           0         1.6       0.661
  YS02001915           JUNCTION     92.70   139.86     0  02:56       0.936         1.6       0.303
  YS02001918           JUNCTION      0.00    47.82     0  03:00           0       0.665       0.196
  YS02001619           JUNCTION     90.08    90.08     0  02:44       0.925       0.925       1.284
  YS02001629           JUNCTION      0.00   196.62     0  03:01           0       0.846       3.393
  YS02001641           JUNCTION      0.00   201.83     0  02:58           0        1.83       1.156
  YS02001644           JUNCTION     98.08   298.34     0  02:58        1.06        2.86       0.916
  YS02001652           JUNCTION      0.00   167.09     0  02:56           0       0.979       2.416
  YS02001655           JUNCTION      0.15   328.28     0  02:56     0.00434        1.01       2.153
  YS02001920           JUNCTION      2.87    47.25     0  03:01      0.0809       0.667       0.336
  YS02001923           JUNCTION      0.04    44.38     0  03:01     0.00106       0.587       0.060
  YS02001926           JUNCTION      0.05    44.38     0  03:01     0.00147       0.588       0.418
  YS02001929           JUNCTION     44.34    44.34     0  03:01       0.587       0.587       0.058
  YS02001658           JUNCTION      0.00   324.34     0  02:57           0        1.04       1.943
  YS02001661           JUNCTION      0.00   388.08     0  04:02           0        1.38       0.652
  YS02001664           JUNCTION    122.35   343.68     0  04:00        1.03        1.36       0.169
  YS02001622           JUNCTION      0.00   140.71     0  03:01           0       0.915       3.553
  YS02001633           JUNCTION     99.63   204.73     0  02:58        1.09        1.89       1.730
  YS02001649           JUNCTION      0.00   443.26     0  02:48           0        3.71       1.010
  YS02001757           JUNCTION      0.00   766.00     0  02:56           0        6.99       1.333
  YS02001895           JUNCTION      0.00   173.54     0  02:33           0        1.37       0.289
  YS02001625           JUNCTION      0.00   197.33     0  03:01           0       0.884       4.624
  YS02163301           JUNCTION      0.00   105.69     0  02:57           0        0.83       2.978
  YS02163601           JUNCTION      0.11   203.98     0  02:57      0.0031        1.85       1.652
  YS02164001           JUNCTION      0.00   203.19     0  02:58           0        1.83       1.106
  YS02001647           JUNCTION      0.00   298.33     0  02:58           0        2.78       1.016
  YSB1154              JUNCTION     17.78    17.78     0  02:10      0.0591      0.0603       2.454
  YSB6556              JUNCTION      0.00    17.70     0  02:11           0      0.0612       2.079
  YSB1174              JUNCTION     16.67    16.67     0  02:06       0.043      0.0437       3.025
  YSB1171              JUNCTION      0.00    32.57     0  02:11           0        0.11       6.077
  YS02006553           JUNCTION      0.00   308.39     0  02:34           0        2.94       0.497
  YS02006561           JUNCTION      0.00   483.56     0  02:35           0        4.16       0.011
  YS02006556           JUNCTION      0.00   306.95     0  02:55           0        2.94       0.360
  YS02006558           JUNCTION    145.63   457.24     0  02:34        1.27        4.19       0.116
  YS02001783           JUNCTION      0.00   450.38     0  02:41           0        4.16       0.041
  YS02001784           JUNCTION      1.06   451.48     0  02:42      0.0299        4.19       0.066
  YS02001786           JUNCTION      0.06   451.51     0  02:42     0.00159        4.19       0.065
  YS02001788           JUNCTION      0.07   451.54     0  02:42       0.002        4.19       0.037
  YS02001790           JUNCTION      0.15   464.53     0  03:14     0.00437        4.19       0.037
  YS02001791           JUNCTION      0.00   482.93     0  03:15           0        4.19       0.006
  YS02001793           JUNCTION      0.00   544.85     0  02:22           0         4.2       0.009
  WSC                  OUTFALL       0.00   943.73     0  06:21           0        16.5       0.000
  JK-storage           STORAGE       0.00  1024.99     0  02:27           0        4.35     -21.573
  CC-storage           STORAGE       0.00   768.59     0  02:56           0         6.9       0.831
  XR-storage           STORAGE     387.22   387.22     0  02:45        7.84        8.44      -2.600
  
  
  **********************
  Node Surcharge Summary
  **********************
  
  Surcharging occurs when water rises above the top of the highest conduit.
  ---------------------------------------------------------------------
                                               Max. Height   Min. Depth
                                   Hours       Above Crown    Below Rim
  Node                 Type      Surcharged         Meters       Meters
  ---------------------------------------------------------------------
  WS02006109           JUNCTION        2.55          0.172        1.648
  WS02006110           JUNCTION        0.61          0.023        1.827
  WS02006112           JUNCTION        0.89          0.097        1.583
  WS02006230           JUNCTION        0.48          0.043        1.527
  WS02006231           JUNCTION        0.88          0.160        1.370
  WS02006232           JUNCTION        2.18          0.370        1.110
  WS02006234           JUNCTION        1.80          0.360        0.880
  WS02006235           JUNCTION        1.97          0.458        0.832
  WS02006238           JUNCTION        2.06          0.480        0.950
  WS02006240           JUNCTION        1.79          0.435        0.955
  WS02006242           JUNCTION        2.01          0.498        0.322
  WS02006243           JUNCTION        1.58          0.426        0.344
  WS02006245           JUNCTION        1.25          0.408        0.442
  WS02006247           JUNCTION        1.31          0.425        0.335
  WS02006248           JUNCTION        0.94          0.364        0.016
  WS02006249           JUNCTION        1.03          0.390        0.000
  WS02006239           JUNCTION        1.84          0.440        0.850
  WS02006251           JUNCTION        0.41          0.235        0.945
  WS02006252           JUNCTION        2.08          0.405        0.695
  WS02006253           JUNCTION        0.44          0.281        2.199
  WS02006256           JUNCTION        6.23          2.050        0.000
  WS02006228           JUNCTION        2.50          0.207        1.993
  YS02001748           JUNCTION        3.20          0.201        0.989
  YS02001751           JUNCTION        4.66          0.484        0.716
  YS02001754           JUNCTION        5.02          0.713        0.437
  YS02001762           JUNCTION        5.47          1.006        0.144
  YS02001765           JUNCTION        5.44          0.956        0.144
  YS02001767           JUNCTION        5.42          0.920        0.110
  YS02001770           JUNCTION        5.39          0.884        0.036
  YS02001774           JUNCTION        5.46          0.975        0.075
  YS02001779           JUNCTION        4.93          0.680        0.000
  YS02001759           JUNCTION        5.50          1.028        0.182
  YS02001619           JUNCTION        4.60          0.503        0.107
  YS02001629           JUNCTION        4.61          0.470        0.000
  YS02001641           JUNCTION        5.46          0.953        0.147
  YS02001644           JUNCTION        5.46          0.920        0.000
  YS02001652           JUNCTION        5.18          0.769        0.361
  YS02001655           JUNCTION        4.71          0.568        0.632
  YS02001658           JUNCTION        3.44          0.291        1.009
  YS02001622           JUNCTION        4.63          0.515        0.105
  YS02001633           JUNCTION        5.43          0.960        0.100
  YS02001649           JUNCTION        5.48          0.986        0.064
  YS02001757           JUNCTION        5.56          1.113        0.097
  YS02001625           JUNCTION        5.30          0.780        0.000
  YS02163301           JUNCTION        5.41          0.908        0.122
  YS02163601           JUNCTION        5.48          1.028        0.052
  YS02164001           JUNCTION        5.44          0.956        0.144
  YS02001647           JUNCTION        5.25          0.763        0.137
  YS02001790           JUNCTION        0.01          1.157        0.000
  YS02001791           JUNCTION        0.14          1.341        0.579
  YS02001793           JUNCTION        0.46          1.019        1.581
  
  
  *********************
  Node Flooding Summary
  *********************
  
  Flooding refers to all water that overflows a node, whether it ponds or not.
  --------------------------------------------------------------------------
                                                             Total   Maximum
                                 Maximum   Time of Max       Flood    Ponded
                        Hours       Rate    Occurrence      Volume     Depth
  Node                 Flooded       LPS   days hr:min    10^6 ltr    Meters
  --------------------------------------------------------------------------
  WS02006249              0.36     81.60      0  04:58       0.056     0.000
  WS02006256              2.35    978.40      0  00:00       2.832     0.000
  YS02001779              0.10     13.01      0  04:27       0.001     0.000
  YS02001629              0.01      4.88      0  05:52       0.000     0.000
  YS02001644              0.74     62.60      0  04:55       0.039     0.000
  YS02001625              0.08     24.18      0  04:08       0.001     0.000
  YS02001790              0.01    111.90      0  04:17       0.000     0.000
  
  
  **********************
  Storage Volume Summary
  **********************
  
  --------------------------------------------------------------------------------------------------
                         Average     Avg  Evap Exfil       Maximum     Max    Time of Max    Maximum
                          Volume    Pcnt  Pcnt  Pcnt        Volume    Pcnt     Occurrence    Outflow
  Storage Unit           1000 m3    Full  Loss  Loss       1000 m3    Full    days hr:min        LPS
  --------------------------------------------------------------------------------------------------
  JK-storage               0.092      31     0     0         0.279      96       0  03:13     983.00
  CC-storage               2.963      19     0     0         3.750      24       0  04:52     400.00
  XR-storage               0.247      27     0     0         0.600      65       0  00:00     380.00
  
  
  ***********************
  Outfall Loading Summary
  ***********************
  
  ---------------------------------------------------------------------------------------------------------------------------------
                         Flow       Avg       Max       Total         Total         Total         Total         Total         Total
                         Freq      Flow      Flow      Volume           COD            SS            TN            TP         NH4-N
  Outfall Node           Pcnt       LPS       LPS    10^6 ltr            kg            kg            kg            kg            kg
  ---------------------------------------------------------------------------------------------------------------------------------
  WSC                   99.98    675.93    943.73      16.464      1940.154      3166.926       153.127        18.616        94.320
  ---------------------------------------------------------------------------------------------------------------------------------
  System                99.98    675.93    943.73      16.464      1940.154      3166.926       153.127        18.616        94.320
  
  
  ********************
  Link Flow Summary
  ********************
  
  -----------------------------------------------------------------------------
                                 Maximum  Time of Max   Maximum    Max/    Max/
                                  |Flow|   Occurrence   |Veloc|    Full    Full
  Link                 Type          LPS  days hr:min     m/sec    Flow   Depth
  -----------------------------------------------------------------------------
  WS02003066WSF200     CONDUIT    546.34     0  04:38      2.87    0.09    0.23
  WS02006287WS02006284 CONDUIT    278.91     0  02:12      1.79    0.13    0.25
  WS02006284WS02006280 CONDUIT    279.03     0  02:13      2.04    0.12    0.23
  WS02006280WS02006229 CONDUIT    279.03     0  02:13      3.28    0.06    0.17
  WS02006229WS02006228 CONDUIT    549.28     0  04:29      1.09    1.82    1.00
  WS02006256WS02006235 CONDUIT    288.60     0  00:00      4.23    3.05    1.00
  WS02006253WS02006251 CONDUIT     56.02     0  02:12      0.55    0.17    1.00
  WS02006252WS02006251 CONDUIT    400.65     0  04:10      3.19    1.47    1.00
  WS02006251WS02006249 CONDUIT    404.32     0  06:29      1.13    1.17    1.00
  WS02006249WS02006248 CONDUIT    390.18     0  07:13      1.19    2.14    1.00
  WS02006248WS02006247 CONDUIT    386.01     0  07:13      1.17    0.84    1.00
  WS02006247WS02006245 CONDUIT    384.06     0  07:20      1.14    3.05    1.00
  WS02006245WS02006243 CONDUIT    383.72     0  07:20      1.18    1.13    1.00
  WS02006243WS02006242 CONDUIT    383.61     0  07:20      1.07    0.82    1.00
  WS02006242WS02006240 CONDUIT    383.75     0  07:20      1.01    1.52    1.00
  WS02006240WS02006239 CONDUIT    382.13     0  07:20      1.04    1.20    1.00
  WS02006239WS02006238 CONDUIT    381.63     0  07:20      0.99    1.22    1.00
  WS02006238WS02006235 CONDUIT    382.17     0  07:21      1.46    0.85    1.00
  WS02006235WS02006234 CONDUIT    524.25     0  06:10      1.36    5.53    1.00
  WS02006234WS02006232 CONDUIT    523.78     0  06:10      1.39    1.06    1.00
  WS02006232WS02006231 CONDUIT    524.21     0  06:09      1.36    1.10    1.00
  WS02006231WS02006230 CONDUIT    524.65     0  06:09      1.36    7.96    1.00
  WS02006230WS02006229 CONDUIT    536.44     0  06:09      1.39   11.94    1.00
  WS02006228WS02006109 CONDUIT    549.06     0  04:29      1.09    2.40    1.00
  WS02006116WS02004401 CONDUIT    548.45     0  04:34      0.77    0.76    0.85
  WS02006115WS02006116 CONDUIT    549.84     0  04:32      0.86    0.71    0.77
  WS02006113WS02006111 CONDUIT    572.57     0  04:32      2.48    0.69    0.47
  WS02006112WS02006115 CONDUIT    558.77     0  06:14      0.77    0.33    0.88
  WS02006111WS02006112 CONDUIT    556.06     0  04:32      1.54    0.26    0.68
  WS02006110WS02006113 CONDUIT    550.19     0  04:29      1.30    0.50    0.79
  WS02006109WS02006110 CONDUIT    549.89     0  04:29      1.09    1.06    1.00
  WS02004411WS02004412 CONDUIT    546.59     0  04:37      0.93    0.78    0.70
  WS02004401WS02004402 CONDUIT    548.36     0  04:34      0.76    0.66    0.87
  WS02004413WS02003067 CONDUIT    546.29     0  04:37      1.12    0.23    0.60
  WS02004412WS02004413 CONDUIT    546.45     0  04:37      0.83    0.37    0.78
  WS02004410WS02004411 CONDUIT    546.93     0  04:36      0.94    0.75    0.69
  WS02004409WS02004410 CONDUIT    547.39     0  04:36      0.96    0.71    0.68
  WS02004407WS02004409 CONDUIT    548.02     0  04:36      1.46    0.19    0.49
  WS02004406WS02004407 CONDUIT    548.05     0  04:35      1.05    0.24    0.63
  WS02004405WS02004406 CONDUIT    548.21     0  04:35      0.71    1.08    0.96
  WS02004404WS02004405 CONDUIT    548.38     0  04:35      0.71    5.37    0.97
  WS02004403WS02004404 CONDUIT    548.26     0  04:35      0.72    0.40    0.93
  WS02004402WS02004403 CONDUIT    548.21     0  04:34      0.74    0.79    0.89
  WS02004139WS02001211 CONDUIT    381.58     0  03:12      0.90    0.48    0.60
  WS02004138WS02004139 CONDUIT    396.19     0  00:00      3.65    0.08    0.44
  WS02003067WS02003066 CONDUIT    546.34     0  04:37      1.22    0.18    0.42
  WS02001213WS02003059 CONDUIT    394.43     0  03:10      0.88    0.65    0.77
  WS02001212WS02001213 CONDUIT    391.91     0  03:11      1.32    0.60    0.47
  WS02001211WS02001212 CONDUIT    390.40     0  03:11      0.78    0.30    0.65
  WS02003072WS02003073 CONDUIT    942.01     0  06:20      1.73    2.03    0.49
  WS02003069WS02003072 CONDUIT    942.12     0  06:19      1.62    0.45    0.51
  WS02003060WS02003069 CONDUIT    942.00     0  06:19      1.87    0.37    0.46
  WS02003059WS02003060 CONDUIT    397.92     0  03:10      0.95    0.26    0.66
  HS02004901HS02004770 CONDUIT     14.04     0  02:09      0.06    0.05    0.36
  HS02004876HS02004881 CONDUIT     48.93     0  02:12      0.72    0.52    0.10
  HS02004870HS02004876 CONDUIT     38.96     0  02:13      0.50    0.03    0.11
  HS02004842HS02004848 CONDUIT      6.94     0  02:22      0.04    0.00    0.28
  HS02004837HS02004842 CONDUIT      7.23     0  02:23      0.42    0.00    0.30
  HS02004830HS02004837 CONDUIT     29.94     0  02:12      0.49    0.03    0.09
  HS02004824HS02004830 CONDUIT     30.08     0  02:13      0.53    0.04    0.08
  HS02004817HS02004824 CONDUIT     50.75     0  02:15      0.17    0.02    0.43
  HS02004770HS02004777 CONDUIT     71.83     0  02:09      0.28    0.13    0.37
  HS02004799HS02004480 CONDUIT    177.58     0  02:10      0.69    0.22    0.37
  HS02004792HS02004799 CONDUIT    162.18     0  02:10      0.79    0.10    0.29
  HS02004788HS02004792 CONDUIT     94.26     0  02:11      0.93    0.06    0.15
  HS02004785HS02004788 CONDUIT     71.39     0  02:11      0.60    0.54    0.17
  HS02004777HS02004785 CONDUIT     71.34     0  02:10      0.33    0.09    0.31
  HS02004480HS02004478 CONDUIT    209.83     0  02:11      1.09    0.88    0.27
  HS02004479HS02004480 CONDUIT     33.00     0  02:13      0.17    0.03    0.36
  HS02004862HS02004870 CONDUIT     28.74     0  02:13      0.54    0.03    0.08
  HS02004848HS02004852 CONDUIT     12.15     0  02:12      0.36    0.01    0.05
  HS02004856HS02004862 CONDUIT     19.70     0  02:13      0.40    0.02    0.07
  HS02004852HS02004856 CONDUIT     12.09     0  02:13      0.17    0.01    0.10
  HS02004802HS02004478 CONDUIT     71.16     0  02:15      0.35    0.06    0.29
  HS02004478WS02006287 CONDUIT    278.86     0  02:12      1.49    0.08    0.21
  HS02004817HS02004807 CONDUIT     52.11     0  02:16      0.14    0.03    0.56
  HS02004807HS02004802 CONDUIT     70.58     0  02:14      0.30    0.13    0.34
  YS02001759YS02001757 CONDUIT    304.47     0  02:57      0.39    0.22    1.00
  YS02001762YS02001759 CONDUIT    177.79     0  02:57      0.23    0.20    1.00
  YS02001765YS02001762 CONDUIT    173.88     0  02:57      0.24    0.16    1.00
  YS02001770YS02001767 CONDUIT    167.75     0  02:57      0.30    0.66    1.00
  YS02001774YS02001770 CONDUIT     50.14     0  02:56      0.13    0.03    1.00
  YS02001779YS02001774 CONDUIT     49.38     0  02:56      0.07    0.02    1.00
  YS02001649YS02001757 CONDUIT    445.01     0  02:48      0.57    0.27    1.00
  YS02001767YS02001765 CONDUIT    169.66     0  02:57      0.27    0.21    1.00
  YS02006561YS02001783 CONDUIT    450.38     0  02:41      1.95    0.23    0.47
  YS02001783YS02001784 CONDUIT    450.42     0  02:42      1.39    0.62    0.62
  YS02001784YS02001785 CONDUIT    451.46     0  02:42      1.49    1.05    0.58
  YS02001788YS02001790 CONDUIT    464.37     0  03:14      2.05    0.34    0.73
  YS02001790YS02001791 CONDUIT    482.93     0  03:15      2.39    0.53    1.00
  YS02001791YS02001793 CONDUIT    538.96     0  03:17      4.90    0.23    1.00
  YS02001910YS02001907 CONDUIT    142.83     0  03:00      0.49    0.08    0.83
  YS02001786YS02001788 CONDUIT    451.47     0  02:42      1.94    0.87    0.53
  YS02001915YS02001910 CONDUIT    141.75     0  03:00      0.45    0.07    0.62
  YS02001918YS02001915 CONDUIT     49.22     0  03:00      0.44    0.03    0.34
  YS02001923YS02001920 CONDUIT     44.38     0  03:01      0.51    0.02    0.17
  YS02001926YS02001923 CONDUIT     44.35     0  03:01      0.57    0.06    0.16
  YS02001929YS02001926 CONDUIT     44.33     0  03:01      0.60    0.02    0.15
  YS02001920YS02001918 CONDUIT     47.82     0  03:00      0.52    0.05    0.21
  YS02001629YS02163301 CONDUIT    105.69     0  02:57      0.13    0.13    1.00
  YS02001619YS02001622 CONDUIT    140.71     0  03:01      0.69    0.21    1.00
  YS02001622YS02001625 CONDUIT    197.33     0  03:01      0.28    0.11    1.00
  YS02001625YS02001629 CONDUIT    196.62     0  03:01      0.28    0.09    1.00
  YS02163301YS02001633 CONDUIT    105.99     0  02:58      0.13    0.10    1.00
  YS02163601YS02164001 CONDUIT    203.19     0  02:58      0.26    0.18    1.00
  YS02164001YS02001641 CONDUIT    201.83     0  02:58      0.26    0.28    1.00
  YS02001641YS02001644 CONDUIT    201.31     0  02:58      0.26    0.65    1.00
  YS02001647YS02001649 CONDUIT    296.75     0  03:02      0.38    0.16    1.00
  YS02006553YS02006556 CONDUIT    306.95     0  02:55      0.41    0.26    0.91
  YS02006556YS02006558 CONDUIT    311.61     0  02:34      0.41    0.25    0.94
  YSB6556YSB1171       CONDUIT     17.97     0  02:13      0.07    0.02    0.62
  YS02001907YS02006553 CONDUIT    308.39     0  02:34      0.34    0.36    1.00
  YS02006558YS02006561 CONDUIT    483.56     0  02:35      2.72    1.07    0.61
  YS02001633YS02163601 CONDUIT    203.87     0  02:57      0.26    0.21    1.00
  YS02001644YS02001647 CONDUIT    298.33     0  02:58      0.38    0.18    1.00
  YS02001745YS02001748 CONDUIT    238.16     0  02:57      1.52    0.09    0.92
  YS02001748YS02001751 CONDUIT    402.89     0  02:56      1.17    0.20    1.00
  YS02001751YS02001754 CONDUIT    180.39     0  02:57      0.93    0.09    1.00
  YS02001754YS02001757 CONDUIT    183.96     0  02:57      0.33    0.07    1.00
  YS02001882YS02001884 CONDUIT      4.90     0  02:05      0.07    0.01    0.56
  YS02001884YS02001887 CONDUIT     13.87     0  02:05      0.05    0.02    0.66
  YS02001890YS02001895 CONDUIT    173.54     0  02:33      0.34    0.08    0.63
  YS02001895YS02001898 CONDUIT    173.79     0  02:34      0.46    0.30    0.49
  YS02001898YS02001901 CONDUIT    172.82     0  02:36      0.38    0.11    0.57
  YS02001901YS02001904 CONDUIT    173.40     0  02:36      0.34    0.27    0.62
  YS02001904YS02001907 CONDUIT    173.75     0  02:35      0.27    0.06    0.78
  YS02001887YS02001890 CONDUIT    173.41     0  02:34      0.29    0.30    0.71
  YS02001652YS02001649 CONDUIT    166.59     0  02:56      0.35    0.08    1.00
  YS02001655YS02001652 CONDUIT    167.09     0  02:56      0.97    0.08    1.00
  YS02001658YS02001655 CONDUIT    328.13     0  02:56      1.35    0.14    1.00
  YS02001661YS02001658 CONDUIT    324.34     0  02:57      1.59    0.13    0.99
  YS02001664YS02001661 CONDUIT    388.08     0  04:02      1.31    0.12    0.69
  YSB1154YSB6556       CONDUIT     17.70     0  02:11      0.19    0.03    0.51
  YSB1174YSB1171       CONDUIT     15.63     0  02:07      0.06    0.02    0.63
  YSB1171HS02004479    CONDUIT     32.74     0  02:12      0.54    0.02    0.49
  HS02004881HS02006253 CONDUIT     54.61     0  02:12      1.90    0.01    0.50
  YS02001793JiankangQianchi CONDUIT   1024.99     0  02:27     14.92    0.08    1.00
  YS02001757CaochengTiaoxuchi CONDUIT    768.59     0  02:56      1.48    0.34    1.00
  WSF200WS02003060     CONDUIT    545.83     0  04:38      2.10    0.12    0.34
  1                    CONDUIT    943.73     0  06:21      3.28    0.33    0.39
  CC-Pump-1            PUMP       200.00     0  03:40              1.00
  CC-Pump-2            PUMP       200.00     0  07:10              1.00
  JK-Pump-1            PUMP       300.00     0  00:00              1.00
  JK-Pump-2            PUMP       683.00     0  00:00              1.00
  XR-Pump-1            PUMP        95.00     0  00:00              1.00
  XR-Pump-2            PUMP        95.00     0  00:00              1.00
  XR-Pump-3            PUMP        95.00     0  00:00              1.00
  XR-Pump-4            PUMP        95.00     0  00:00              1.00
  
  
  ***************************
  Flow Classification Summary
  ***************************
  
  -------------------------------------------------------------------------------------
                      Adjusted    ---------- Fraction of Time in Flow Class ---------- 
                       /Actual         Up    Down  Sub   Sup   Up    Down  Norm  Inlet 
  Conduit               Length    Dry  Dry   Dry   Crit  Crit  Crit  Crit  Ltd   Ctrl  
  -------------------------------------------------------------------------------------
  WS02003066WSF200        1.00   0.01  0.06  0.00  0.00  0.93  0.00  0.00  0.58  0.00
  WS02006287WS02006284    1.00   0.03  0.02  0.00  0.81  0.14  0.00  0.00  0.77  0.00
  WS02006284WS02006280    1.00   0.03  0.00  0.00  0.00  0.00  0.00  0.97  0.00  0.00
  WS02006280WS02006229    1.00   0.03  0.00  0.00  0.00  0.00  0.00  0.97  0.00  0.00
  WS02006229WS02006228    1.00   0.00  0.00  0.00  1.00  0.00  0.00  0.00  0.00  0.00
  WS02006256WS02006235    1.00   0.00  0.00  0.00  1.00  0.00  0.00  0.00  0.00  0.00
  WS02006253WS02006251    1.00   0.01  0.01  0.00  0.97  0.00  0.00  0.00  0.00  0.00
  WS02006252WS02006251    1.00   0.18  0.00  0.00  0.04  0.00  0.79  0.00  0.00  0.00
  WS02006251WS02006249    1.00   0.00  0.00  0.00  1.00  0.00  0.00  0.00  0.32  0.00
  WS02006249WS02006248    1.00   0.00  0.01  0.00  0.90  0.00  0.09  0.00  0.00  0.00
  WS02006248WS02006247    1.00   0.01  0.00  0.00  0.98  0.00  0.00  0.01  0.18  0.00
  WS02006247WS02006245    1.00   0.01  0.00  0.00  0.97  0.00  0.00  0.02  0.00  0.00
  WS02006245WS02006243    1.00   0.00  0.00  0.00  0.93  0.00  0.00  0.06  0.02  0.00
  WS02006243WS02006242    1.00   0.00  0.00  0.00  1.00  0.00  0.00  0.00  0.31  0.00
  WS02006242WS02006240    1.00   0.00  0.00  0.00  1.00  0.00  0.00  0.00  0.00  0.00
  WS02006240WS02006239    1.00   0.00  0.00  0.00  0.94  0.00  0.00  0.06  0.02  0.00
  WS02006239WS02006238    1.00   0.00  0.00  0.00  1.00  0.00  0.00  0.00  0.21  0.00
  WS02006238WS02006235    1.00   0.00  0.00  0.00  1.00  0.00  0.00  0.00  0.00  0.00
  WS02006235WS02006234    1.00   0.00  0.00  0.00  0.95  0.00  0.05  0.00  0.00  0.00
  WS02006234WS02006232    1.00   0.00  0.00  0.00  1.00  0.00  0.00  0.00  0.16  0.00
  WS02006232WS02006231    1.00   0.00  0.00  0.00  1.00  0.00  0.00  0.00  0.00  0.00
  WS02006231WS02006230    1.00   0.00  0.00  0.00  0.63  0.00  0.37  0.00  0.00  0.00
  WS02006230WS02006229    1.00   0.00  0.00  0.00  1.00  0.00  0.00  0.00  0.01  0.00
  WS02006228WS02006109    1.00   0.00  0.00  0.00  1.00  0.00  0.00  0.00  0.00  0.00
  WS02006116WS02004401    1.00   0.01  0.00  0.00  0.99  0.00  0.00  0.00  0.01  0.00
  WS02006115WS02006116    1.00   0.01  0.00  0.00  0.97  0.00  0.00  0.02  0.01  0.00
  WS02006113WS02006111    1.00   0.01  0.00  0.00  0.00  0.99  0.00  0.00  0.16  0.00
  WS02006112WS02006115    1.00   0.01  0.00  0.00  0.99  0.00  0.00  0.00  0.00  0.00
  WS02006111WS02006112    1.00   0.01  0.00  0.00  0.99  0.00  0.00  0.00  0.98  0.00
  WS02006110WS02006113    1.00   0.00  0.00  0.00  0.99  0.00  0.00  0.00  0.00  0.00
  WS02006109WS02006110    1.00   0.00  0.00  0.00  1.00  0.00  0.00  0.00  0.00  0.00
  WS02004411WS02004412    1.00   0.05  0.00  0.00  0.95  0.00  0.00  0.00  0.00  0.00
  WS02004401WS02004402    1.00   0.01  0.00  0.00  0.99  0.00  0.00  0.00  0.01  0.00
  WS02004413WS02003067    1.00   0.05  0.02  0.00  0.00  0.00  0.93  0.00  0.00  0.00
  WS02004412WS02004413    1.00   0.05  0.00  0.00  0.95  0.00  0.00  0.00  0.01  0.00
  WS02004410WS02004411    1.00   0.05  0.00  0.00  0.95  0.00  0.00  0.00  0.00  0.00
  WS02004409WS02004410    1.00   0.05  0.00  0.00  0.95  0.00  0.00  0.00  0.00  0.00
  WS02004407WS02004409    1.00   0.05  0.00  0.00  0.95  0.00  0.00  0.00  0.78  0.00
  WS02004406WS02004407    1.00   0.00  0.05  0.00  0.95  0.00  0.00  0.00  0.00  0.00
  WS02004405WS02004406    1.00   0.00  0.00  0.00  1.00  0.00  0.00  0.00  0.02  0.00
  WS02004404WS02004405    1.00   0.00  0.00  0.00  1.00  0.00  0.00  0.00  0.00  0.00
  WS02004403WS02004404    1.00   0.00  0.01  0.00  0.99  0.00  0.00  0.00  0.02  0.00
  WS02004402WS02004403    1.00   0.01  0.00  0.00  0.99  0.00  0.00  0.00  0.00  0.00
  WS02004139WS02001211    1.00   0.00  0.00  0.00  1.00  0.00  0.00  0.00  0.00  0.00
  WS02004138WS02004139    1.00   0.00  0.00  0.00  1.00  0.00  0.00  0.00  1.00  0.00
  WS02003067WS02003066    1.00   0.07  0.00  0.00  0.93  0.00  0.00  0.00  0.00  0.00
  WS02001213WS02003059    1.00   0.00  0.00  0.00  1.00  0.00  0.00  0.00  0.00  0.00
  WS02001212WS02001213    1.00   0.00  0.00  0.00  0.92  0.00  0.08  0.00  0.00  0.00
  WS02001211WS02001212    1.00   0.00  0.00  0.00  1.00  0.00  0.00  0.00  0.00  0.00
  WS02003072WS02003073    1.00   0.00  0.00  0.00  0.00  0.00  0.00  1.00  0.00  0.00
  WS02003069WS02003072    1.00   0.00  0.00  0.00  1.00  0.00  0.00  0.00  0.18  0.00
  WS02003060WS02003069    1.00   0.00  0.00  0.00  0.99  0.01  0.00  0.00  0.15  0.00
  WS02003059WS02003060    1.00   0.00  0.00  0.00  1.00  0.00  0.00  0.00  0.00  0.00
  HS02004901HS02004770    1.00   0.03  0.00  0.00  0.97  0.00  0.00  0.00  0.01  0.00
  HS02004876HS02004881    1.00   0.01  0.00  0.00  0.99  0.00  0.00  0.00  0.00  0.00
  HS02004870HS02004876    1.00   0.00  0.00  0.00  1.00  0.00  0.00  0.00  0.95  0.00
  HS02004842HS02004848    1.00   0.00  0.03  0.00  0.97  0.00  0.00  0.00  0.65  0.00
  HS02004837HS02004842    1.00   0.00  0.00  0.00  1.00  0.00  0.00  0.00  0.11  0.00
  HS02004830HS02004837    1.00   0.00  0.00  0.00  1.00  0.00  0.00  0.00  0.99  0.00
  HS02004824HS02004830    1.00   0.00  0.00  0.00  1.00  0.00  0.00  0.00  0.00  0.00
  HS02004817HS02004824    1.00   0.00  0.00  0.00  1.00  0.00  0.00  0.00  1.00  0.00
  HS02004770HS02004777    1.00   0.00  0.03  0.00  0.97  0.00  0.00  0.00  0.06  0.00
  HS02004799HS02004480    1.00   0.00  0.01  0.00  0.95  0.00  0.04  0.00  0.00  0.00
  HS02004792HS02004799    1.00   0.00  0.00  0.00  1.00  0.00  0.00  0.00  0.98  0.00
  HS02004788HS02004792    1.00   0.00  0.00  0.00  1.00  0.00  0.00  0.00  0.98  0.00
  HS02004785HS02004788    1.00   0.00  0.00  0.00  1.00  0.00  0.00  0.00  0.00  0.00
  HS02004777HS02004785    1.00   0.00  0.00  0.00  1.00  0.00  0.00  0.00  0.18  0.00
  HS02004480HS02004478    1.00   0.04  0.00  0.00  0.84  0.00  0.00  0.12  0.00  0.00
  HS02004479HS02004480    1.00   0.01  0.00  0.00  0.99  0.00  0.00  0.00  0.15  0.00
  HS02004862HS02004870    1.00   0.00  0.00  0.00  1.00  0.00  0.00  0.00  0.05  0.00
  HS02004848HS02004852    1.00   0.03  0.00  0.00  0.97  0.00  0.00  0.00  0.72  0.00
  HS02004856HS02004862    1.00   0.00  0.06  0.00  0.94  0.00  0.00  0.00  0.77  0.00
  HS02004852HS02004856    1.00   0.03  0.01  0.00  0.96  0.00  0.00  0.00  0.83  0.00
  HS02004802HS02004478    1.00   0.03  0.01  0.00  0.96  0.00  0.00  0.00  0.01  0.00
  HS02004478WS02006287    1.00   0.04  0.00  0.00  0.90  0.05  0.00  0.00  0.75  0.00
  HS02004817HS02004807    1.00   0.00  0.03  0.00  0.97  0.00  0.00  0.00  0.00  0.00
  HS02004807HS02004802    1.00   0.03  0.00  0.00  0.96  0.00  0.00  0.00  0.01  0.00
  YS02001759YS02001757    1.00   0.00  0.00  0.00  1.00  0.00  0.00  0.00  0.18  0.00
  YS02001762YS02001759    1.00   0.00  0.00  0.00  1.00  0.00  0.00  0.00  0.04  0.00
  YS02001765YS02001762    1.00   0.00  0.00  0.00  1.00  0.00  0.00  0.00  0.20  0.00
  YS02001770YS02001767    1.00   0.00  0.00  0.00  1.00  0.00  0.00  0.00  0.00  0.00
  YS02001774YS02001770    1.00   0.00  0.04  0.00  0.96  0.00  0.00  0.00  0.05  0.00
  YS02001779YS02001774    1.00   0.00  0.00  0.00  1.00  0.00  0.00  0.00  0.24  0.00
  YS02001649YS02001757    1.00   0.00  0.00  0.00  1.00  0.00  0.00  0.00  0.18  0.00
  YS02001767YS02001765    1.00   0.00  0.00  0.00  1.00  0.00  0.00  0.00  0.01  0.00
  YS02006561YS02001783    1.00   0.06  0.00  0.00  0.00  0.94  0.00  0.00  0.63  0.00
  YS02001783YS02001784    1.00   0.00  0.06  0.00  0.94  0.00  0.00  0.00  0.01  0.00
  YS02001784YS02001785    1.00   0.00  0.00  0.00  1.00  0.00  0.00  0.00  0.23  0.00
  YS02001788YS02001790    1.00   0.00  0.00  0.00  0.13  0.87  0.00  0.00  0.70  0.00
  YS02001790YS02001791    1.00   0.00  0.00  0.00  0.09  0.91  0.00  0.00  0.58  0.00
  YS02001791YS02001793    1.00   0.00  0.00  0.00  0.15  0.85  0.00  0.00  0.06  0.00
  YS02001910YS02001907    1.00   0.00  0.00  0.00  0.99  0.00  0.00  0.01  0.13  0.00
  YS02001786YS02001788    1.00   0.00  0.00  0.00  0.10  0.90  0.00  0.00  0.00  0.00
  YS02001915YS02001910    1.00   0.00  0.00  0.00  1.00  0.00  0.00  0.00  0.22  0.00
  YS02001918YS02001915    1.00   0.00  0.00  0.00  0.99  0.00  0.00  0.00  0.70  0.00
  YS02001923YS02001920    1.00   0.00  0.00  0.00  1.00  0.00  0.00  0.00  1.00  0.00
  YS02001926YS02001923    1.00   0.00  0.02  0.00  0.00  0.00  0.98  0.00  0.00  0.00
  YS02001929YS02001926    1.00   0.00  0.03  0.00  0.97  0.00  0.00  0.00  0.87  0.00
  YS02001920YS02001918    1.00   0.00  0.00  0.00  1.00  0.00  0.00  0.00  0.00  0.00
  YS02001629YS02163301    1.00   0.05  0.00  0.00  0.95  0.00  0.00  0.00  0.00  0.00
  YS02001619YS02001622    1.00   0.03  0.00  0.00  0.97  0.00  0.00  0.00  0.00  0.00
  YS02001622YS02001625    1.00   0.03  0.00  0.00  0.97  0.00  0.00  0.00  0.11  0.00
  YS02001625YS02001629    1.00   0.03  0.03  0.00  0.92  0.00  0.01  0.00  0.00  0.00
  YS02163301YS02001633    1.00   0.00  0.05  0.00  0.95  0.00  0.00  0.00  0.00  0.00
  YS02163601YS02164001    1.00   0.00  0.02  0.00  0.98  0.00  0.00  0.00  0.00  0.00
  YS02164001YS02001641    1.00   0.00  0.02  0.00  0.98  0.00  0.00  0.00  0.07  0.00
  YS02001641YS02001644    1.00   0.00  0.00  0.00  1.00  0.00  0.00  0.00  0.00  0.00
  YS02001647YS02001649    1.00   0.00  0.06  0.00  0.94  0.00  0.00  0.00  0.01  0.00
  YS02006553YS02006556    1.00   0.00  0.00  0.00  1.00  0.00  0.00  0.00  0.03  0.00
  YS02006556YS02006558    1.00   0.00  0.00  0.00  1.00  0.00  0.00  0.00  0.00  0.00
  YSB6556YSB1171          1.00   0.01  0.02  0.00  0.97  0.00  0.00  0.00  0.00  0.00
  YS02001907YS02006553    1.00   0.00  0.01  0.00  0.99  0.00  0.00  0.00  0.00  0.00
  YS02006558YS02006561    1.00   0.06  0.00  0.00  0.00  0.94  0.00  0.00  0.68  0.00
  YS02001633YS02163601    1.00   0.00  0.00  0.00  1.00  0.00  0.00  0.00  0.19  0.00
  YS02001644YS02001647    1.00   0.00  0.06  0.00  0.94  0.00  0.00  0.00  0.00  0.00
  YS02001745YS02001748    1.00   0.00  0.00  0.00  0.91  0.00  0.00  0.09  0.07  0.00
  YS02001748YS02001751    1.00   0.00  0.00  0.00  0.97  0.03  0.00  0.00  0.20  0.00
  YS02001751YS02001754    1.00   0.00  0.00  0.00  0.93  0.00  0.00  0.07  0.02  0.00
  YS02001754YS02001757    1.00   0.00  0.00  0.00  1.00  0.00  0.00  0.00  0.24  0.00
  YS02001882YS02001884    1.00   0.05  0.00  0.00  0.95  0.00  0.00  0.00  0.00  0.00
  YS02001884YS02001887    1.00   0.02  0.01  0.00  0.97  0.00  0.00  0.00  0.00  0.00
  YS02001890YS02001895    1.00   0.00  0.05  0.00  0.95  0.00  0.00  0.00  0.00  0.00
  YS02001895YS02001898    1.00   0.05  0.00  0.00  0.94  0.00  0.01  0.00  0.00  0.00
  YS02001898YS02001901    1.00   0.05  0.00  0.00  0.95  0.00  0.00  0.00  0.02  0.00
  YS02001901YS02001904    1.00   0.05  0.00  0.00  0.95  0.00  0.00  0.00  0.00  0.00
  YS02001904YS02001907    1.00   0.00  0.05  0.00  0.95  0.00  0.00  0.00  0.00  0.00
  YS02001887YS02001890    1.00   0.00  0.00  0.00  0.99  0.00  0.01  0.00  0.00  0.00
  YS02001652YS02001649    1.00   0.00  0.00  0.00  1.00  0.00  0.00  0.00  0.23  0.00
  YS02001655YS02001652    1.00   0.00  0.00  0.00  0.93  0.00  0.00  0.06  0.02  0.00
  YS02001658YS02001655    1.00   0.00  0.04  0.00  0.93  0.03  0.00  0.00  0.08  0.00
  YS02001661YS02001658    1.00   0.04  0.00  0.00  0.91  0.05  0.00  0.00  0.07  0.00
  YS02001664YS02001661    1.00   0.03  0.00  0.00  0.91  0.06  0.00  0.00  0.30  0.00
  YSB1154YSB6556          1.00   0.03  0.00  0.00  0.97  0.00  0.00  0.00  0.02  0.00
  YSB1174YSB1171          1.00   0.01  0.01  0.00  0.98  0.00  0.00  0.00  0.00  0.00
  YSB1171HS02004479       1.00   0.01  0.00  0.00  0.99  0.00  0.00  0.00  0.13  0.00
  HS02004881HS02006253    1.00   0.01  0.00  0.00  0.76  0.00  0.00  0.22  0.50  0.00
  YS02001793JiankangQianchi    1.00   0.00  0.00  0.00  0.61  0.39  0.00  0.00  0.55  0.00
  YS02001757CaochengTiaoxuchi    1.00   0.00  0.07  0.00  0.93  0.00  0.00  0.00  0.00  0.00
  WSF200WS02003060        1.00   0.00  0.01  0.00  0.78  0.20  0.00  0.00  0.49  0.00
  1                       1.00   0.00  0.00  0.00  0.00  1.00  0.00  0.00  0.47  0.00
  
  
  *************************
  Conduit Surcharge Summary
  *************************
  
  ----------------------------------------------------------------------------
                                                           Hours        Hours 
                         --------- Hours Full --------   Above Full   Capacity
  Conduit                Both Ends  Upstream  Dnstream   Normal Flow   Limited
  ----------------------------------------------------------------------------
  WS02006229WS02006228        2.50      2.63      2.50      4.03         2.50
  WS02006256WS02006235        5.29      5.30      6.23      3.18         0.01
  WS02006253WS02006251        0.95      0.95      1.03      0.01         0.01
  WS02006252WS02006251        0.96      0.96      2.08      1.76         0.01
  WS02006251WS02006249        0.97      0.98      1.03      0.76         0.31
  WS02006249WS02006248        0.94      0.94      1.03      3.72         0.01
  WS02006248WS02006247        1.00      1.00      1.31      0.01         0.01
  WS02006247WS02006245        1.25      1.41      1.25      3.90         1.25
  WS02006245WS02006243        1.34      1.36      1.58      0.44         0.19
  WS02006243WS02006242        1.65      1.65      2.01      0.01         0.01
  WS02006242WS02006240        1.79      1.79      2.21      2.14         0.01
  WS02006240WS02006239        1.80      1.84      1.84      0.99         0.38
  WS02006239WS02006238        2.03      2.08      2.06      1.08         0.53
  WS02006238WS02006235        2.00      2.00      2.18      0.01         0.01
  WS02006235WS02006234        1.80      1.80      1.97      5.21         0.01
  WS02006234WS02006232        1.89      1.89      2.18      0.64         0.61
  WS02006232WS02006231        0.88      0.88      2.18      0.78         0.01
  WS02006231WS02006230        0.48      0.48      0.96      5.41         0.01
  WS02006230WS02006229        3.13      3.46      3.13      5.68         3.13
  WS02006228WS02006109        2.55      2.87      2.55      4.97         2.55
  WS02006112WS02006115        0.01      0.01      0.89      0.01         0.01
  WS02006111WS02006112        0.01      0.01      4.29      0.01         0.01
  WS02006110WS02006113        0.01      0.01      2.76      0.01         0.01
  WS02006109WS02006110        0.61      0.61      2.87      0.62         0.01
  WS02004405WS02004406        0.01      0.01      0.01      0.73         0.01
  WS02004404WS02004405        0.01      0.01      0.01      5.75         0.01
  WS02003072WS02003073        0.01      0.01      0.01      5.33         0.01
  YS02001759YS02001757        5.50      5.50      5.56      0.01         0.01
  YS02001762YS02001759        5.47      5.47      5.50      0.01         0.01
  YS02001765YS02001762        5.44      5.44      5.47      0.01         0.01
  YS02001770YS02001767        5.42      5.42      5.42      0.01         0.63
  YS02001774YS02001770        5.39      5.39      5.46      0.01         0.01
  YS02001779YS02001774        4.93      4.93      5.46      0.01         0.01
  YS02001649YS02001757        5.48      5.48      5.56      0.01         0.01
  YS02001767YS02001765        5.42      5.42      5.44      0.01         0.01
  YS02001784YS02001785        0.01      0.01      0.01      0.51         0.01
  YS02001788YS02001790        0.01      0.01      0.01      0.01         0.01
  YS02001790YS02001791        0.01      0.01      0.14      0.01         0.01
  YS02001791YS02001793        0.14      0.14      0.59      0.01         0.01
  YS02001629YS02163301        5.38      5.38      5.41      0.01         0.01
  YS02001619YS02001622        4.60      4.60      4.63      0.01         0.01
  YS02001622YS02001625        4.63      4.63      5.30      0.01         0.01
  YS02001625YS02001629        4.61      4.61      5.30      0.01         0.01
  YS02163301YS02001633        5.41      5.41      5.45      0.01         0.01
  YS02163601YS02164001        5.44      5.44      5.48      0.01         0.01
  YS02164001YS02001641        5.44      5.44      5.46      0.01         0.01
  YS02001641YS02001644        5.46      5.46      5.46      0.01         0.89
  YS02001647YS02001649        5.25      5.25      5.48      0.01         0.01
  YS02001907YS02006553        0.64      0.64      0.91      0.01         0.01
  YS02006558YS02006561        0.01      0.01      0.01      0.15         0.01
  YS02001633YS02163601        5.43      5.43      5.48      0.01         0.01
  YS02001644YS02001647        5.25      5.25      5.46      0.01         0.01
  YS02001745YS02001748        0.01      0.01      3.20      0.01         0.01
  YS02001748YS02001751        4.01      4.01      4.66      0.01         0.01
  YS02001751YS02001754        4.66      4.66      5.02      0.01         0.01
  YS02001754YS02001757        5.23      5.23      5.56      0.01         0.01
  YS02001652YS02001649        5.28      5.28      5.48      0.01         0.01
  YS02001655YS02001652        4.71      4.71      5.18      0.01         0.01
  YS02001658YS02001655        3.43      3.43      4.71      0.01         0.01
  YS02001661YS02001658        0.01      0.01      3.43      0.01         0.01
  YS02001664YS02001661        0.01      0.01      0.11      0.01         0.01
  HS02004881HS02006253        0.01      0.01      0.44      0.01         0.01
  YS02001793JiankangQianchi        0.45      0.45      3.14      0.01         0.01
  YS02001757CaochengTiaoxuchi        4.42      4.42      5.56      0.01         0.01
  
  
  ***************
  Pumping Summary
  ***************
  
  ---------------------------------------------------------------------------------------------------------
                                                  Min       Avg       Max     Total     Power    % Time Off
                        Percent   Number of      Flow      Flow      Flow    Volume     Usage    Pump Curve
  Pump                 Utilized   Start-Ups       LPS       LPS       LPS  10^6 ltr     Kw-hr    Low   High
  ---------------------------------------------------------------------------------------------------------
  CC-Pump-1               55.31           1      0.00    185.63    200.00     2.820      3.43    0.0    0.0
  CC-Pump-2               36.16           6      0.00     90.11    200.00     1.080      1.57    0.0    0.0
  JK-Pump-1               46.81           5      0.00    173.64    300.00     2.267     42.27    0.0    0.0
  JK-Pump-2               42.56           5      0.00    216.86    683.00     3.051     58.61    0.0   96.5
  XR-Pump-1               89.38           4      0.00     88.61     95.00     2.195     44.09    0.0    0.0
  XR-Pump-2               89.38           4      0.00     88.61     95.00     2.195     44.09    0.0    0.0
  XR-Pump-3               82.99           4      0.00     86.63     95.00     1.967     39.50    0.0    0.0
  XR-Pump-4               82.99           4      0.00     86.63     95.00     1.967     39.50    0.0    0.0
  
  
  ***************************
  Link Pollutant Load Summary
  ***************************
  
  ------------------------------------------------------------------------------------------
                                 COD            SS            TN            TP         NH4-N
  Link                            kg            kg            kg            kg            kg
  ------------------------------------------------------------------------------------------
  WS02003066WSF200           459.135       788.884        15.254         1.465         8.402
  WS02006287WS02006284       133.426       234.305         6.764         0.760         3.990
  WS02006284WS02006280       133.850       234.990         6.804         0.764         4.014
  WS02006280WS02006229       133.835       234.961         6.804         0.764         4.014
  WS02006229WS02006228       465.556       799.343        14.989         1.417         8.200
  WS02006256WS02006235        73.515       124.493         2.081         0.183         1.113
  WS02006253WS02006251        24.082        43.713         0.688         0.060         0.364
  WS02006252WS02006251       251.077       424.548         5.829         0.440         2.916
  WS02006251WS02006249       268.542       457.168         6.369         0.490         3.208
  WS02006249WS02006248       264.196       449.804         6.263         0.481         3.154
  WS02006248WS02006247       264.039       449.573         6.261         0.481         3.153
  WS02006247WS02006245       263.652       448.933         6.251         0.481         3.148
  WS02006245WS02006243       263.178       448.212         6.234         0.479         3.139
  WS02006243WS02006242       263.773       449.334         6.250         0.480         3.147
  WS02006242WS02006240       264.268       450.345         6.258         0.481         3.151
  WS02006240WS02006239       265.282       452.262         6.277         0.482         3.160
  WS02006239WS02006238       267.274       455.655         6.340         0.488         3.195
  WS02006238WS02006235       268.033       456.778         6.369         0.491         3.212
  WS02006235WS02006234       334.911       569.693         8.272         0.659         4.230
  WS02006234WS02006232       334.539       569.076         8.269         0.659         4.230
  WS02006232WS02006231       333.852       567.925         8.247         0.657         4.218
  WS02006231WS02006230       333.344       567.074         8.238         0.657         4.214
  WS02006230WS02006229       333.222       566.969         8.244         0.658         4.219
  WS02006228WS02006109       464.700       797.954        14.963         1.414         8.186
  WS02006116WS02004401       470.212       807.313        15.573         1.493         8.571
  WS02006115WS02006116       471.327       809.137        15.616         1.497         8.595
  WS02006113WS02006111       470.624       807.329        15.669         1.505         8.632
  WS02006112WS02006115       472.479       811.062        15.670         1.503         8.626
  WS02006111WS02006112       470.124       806.496        15.653         1.503         8.624
  WS02006110WS02006113       471.196       808.286        15.695         1.507         8.648
  WS02006109WS02006110       472.420       810.324        15.753         1.514         8.681
  WS02004411WS02004412       462.293       794.169        15.372         1.477         8.468
  WS02004401WS02004402       468.987       805.275        15.520         1.488         8.540
  WS02004413WS02003067       459.692       789.801        15.268         1.466         8.409
  WS02004412WS02004413       461.155       792.271        15.338         1.474         8.450
  WS02004410WS02004411       463.117       795.533        15.396         1.479         8.481
  WS02004409WS02004410       463.941       796.908        15.423         1.482         8.496
  WS02004407WS02004409       464.523       797.857        15.437         1.483         8.503
  WS02004406WS02004407       464.599       797.951        15.433         1.482         8.500
  WS02004405WS02004406       466.298       800.761        15.514         1.491         8.547
  WS02004404WS02004405       467.234       802.303        15.515         1.490         8.544
  WS02004403WS02004404       466.831       801.702        15.435         1.479         8.493
  WS02004402WS02004403       467.888       803.466        15.479         1.483         8.517
  WS02004139WS02001211      1309.412      2103.711       121.084        15.047        75.412
  WS02004138WS02004139      1308.825      2102.783       121.021        15.039        75.373
  WS02003067WS02003066       459.272       789.117        15.259         1.466         8.405
  WS02001213WS02003059      1356.531      2179.100       125.609        15.612        78.241
  WS02001212WS02001213      1359.185      2183.354       125.860        15.644        78.397
  WS02001211WS02001212      1359.058      2183.146       125.850        15.642        78.391
  WS02003072WS02003073      1927.617      3146.963       151.748        18.440        93.451
  WS02003069WS02003072      1930.242      3151.196       151.990        18.471        93.602
  WS02003060WS02003069      1929.709      3150.393       151.887        18.457        93.536
  WS02003059WS02003060      1357.731      2181.025       125.721        15.626        78.310
  HS02004901HS02004770         3.768         6.956         0.072         0.005         0.033
  HS02004876HS02004881        14.538        27.148         0.392         0.032         0.203
  HS02004870HS02004876        11.123        20.659         0.335         0.029         0.177
  HS02004842HS02004848         2.020         3.613         0.044         0.003         0.020
  HS02004837HS02004842         6.638        10.962         0.512         0.062         0.314
  HS02004830HS02004837        51.425        84.619         4.286         0.527         2.655
  HS02004824HS02004830        52.176        85.822         4.358         0.536         2.700
  HS02004817HS02004824        60.190       100.738         4.551         0.549         2.797
  HS02004770HS02004777        14.451        26.901         0.308         0.020         0.140
  HS02004799HS02004480        57.127       101.669         2.229         0.231         1.254
  HS02004792HS02004799        52.706        92.936         2.194         0.233         1.246
  HS02004788HS02004792        33.315        58.474         1.677         0.185         0.978
  HS02004785HS02004788        15.948        29.309         0.460         0.040         0.236
  HS02004777HS02004785        15.414        28.443         0.412         0.034         0.206
  HS02004480HS02004478        69.804       125.899         2.400         0.241         1.327
  HS02004479HS02004480        16.994        31.107         0.582         0.061         0.330
  HS02004862HS02004870         8.296        15.079         0.278         0.026         0.150
  HS02004848HS02004852         2.587         4.685         0.056         0.004         0.025
  HS02004856HS02004862         4.908         9.221         0.101         0.006         0.047
  HS02004852HS02004856         2.583         4.678         0.056         0.004         0.025
  HS02004802HS02004478        63.923       108.902         4.391         0.522         2.679
  HS02004478WS02006287       133.605       234.602         6.779         0.761         3.999
  HS02004817HS02004807        58.826        98.556         4.422         0.533         2.717
  HS02004807HS02004802        64.589       109.963         4.455         0.530         2.720
  YS02001759YS02001757       148.429       253.314         3.294         0.232         1.639
  YS02001762YS02001759        78.479       134.957         1.921         0.142         0.978
  YS02001765YS02001762        77.859       133.794         1.932         0.144         0.987
  YS02001770YS02001767        75.332       129.665         1.632         0.104         0.795
  YS02001774YS02001770         4.913         8.439         0.122         0.009         0.062
  YS02001779YS02001774         3.439         5.765         0.160         0.017         0.093
  YS02001649YS02001757       217.398       359.069         4.939         0.377         2.430
  YS02001767YS02001765        77.786       133.602         1.945         0.145         0.994
  YS02006561YS02001783       307.445       520.933         8.068         0.677         4.233
  YS02001783YS02001784       307.362       520.808         8.064         0.677         4.231
  YS02001784YS02001785       314.716       532.588         8.778         0.766         4.678
  YS02001788YS02001790       315.376       533.665         8.851         0.775         4.724
  YS02001790YS02001791       316.391       535.310         8.950         0.788         4.786
  YS02001791YS02001793       316.374       535.282         8.948         0.788         4.784
  YS02001910YS02001907       105.553       175.547         3.866         0.365         2.155
  YS02001786YS02001788       314.935       532.947         8.806         0.770         4.695
  YS02001915YS02001910       105.461       175.355         3.819         0.358         2.124
  YS02001918YS02001915        54.189        86.540         2.675         0.295         1.577
  YS02001923YS02001920        34.190        54.554         0.732         0.052         0.361
  YS02001926YS02001923        33.825        53.968         0.693         0.047         0.337
  YS02001929YS02001926        33.559        53.530         0.662         0.043         0.317
  YS02001920YS02001918        54.122        86.451         2.650         0.292         1.561
  YS02001629YS02163301        38.350        63.581         0.851         0.053         0.394
  YS02001619YS02001622        41.608        68.646         0.927         0.058         0.428
  YS02001622YS02001625        40.765        67.401         0.906         0.056         0.418
  YS02001625YS02001629        39.652        65.753         0.879         0.055         0.406
  YS02163301YS02001633        38.732        64.253         0.857         0.054         0.397
  YS02163601YS02164001       107.875       177.542         2.332         0.165         1.125
  YS02164001YS02001641       107.588       177.080         2.313         0.163         1.114
  YS02001641YS02001644       108.333       178.324         2.319         0.163         1.115
  YS02001647YS02001649       171.302       281.311         3.521         0.248         1.685
  YS02006553YS02006556       223.048       376.634         6.194         0.543         3.309
  YS02006556YS02006558       222.997       376.535         6.161         0.538         3.287
  YSB6556YSB1171               8.961        16.557         0.239         0.023         0.130
  YS02001907YS02006553       223.026       376.618         6.191         0.542         3.308
  YS02006558YS02006561       307.434       520.904         8.066         0.677         4.232
  YS02001633YS02163601       108.513       178.495         2.314         0.162         1.110
  YS02001644YS02001647       172.166       282.611         3.539         0.249         1.694
  YS02001745YS02001748        58.488        99.013         1.287         0.078         0.622
  YS02001748YS02001751        64.566       108.918         1.860         0.150         0.981
  YS02001751YS02001754        61.305       103.375         1.774         0.143         0.936
  YS02001754YS02001757        62.270       104.911         1.945         0.166         1.046
  YS02001882YS02001884         0.762         1.230         0.021         0.002         0.011
  YS02001884YS02001887         2.856         4.781         0.069         0.006         0.036
  YS02001890YS02001895       118.582       202.673         2.349         0.179         1.165
  YS02001895YS02001898       118.440       202.470         2.343         0.179         1.161
  YS02001898YS02001901       118.317       202.293         2.340         0.178         1.159
  YS02001901YS02001904       118.356       202.390         2.359         0.181         1.172
  YS02001904YS02001907       119.089       203.603         2.451         0.193         1.230
  YS02001887YS02001890       119.437       203.995         2.412         0.187         1.203
  YS02001652YS02001649        47.883        80.532         1.446         0.130         0.755
  YS02001655YS02001652        48.410        81.382         1.462         0.131         0.763
  YS02001658YS02001655        46.318        78.215         1.116         0.086         0.540
  YS02001661YS02001658        47.121        79.682         1.001         0.068         0.459
  YS02001664YS02001661        57.930        96.514         1.249         0.084         0.569
  YSB1154YSB6556               8.466        15.769         0.178         0.015         0.091
  YSB1174YSB1171               6.148        11.521         0.162         0.015         0.087
  YSB1171HS02004479           16.898        30.962         0.572         0.060         0.324
  HS02004881HS02006253        16.351        30.683         0.419         0.034         0.215
  YS02001793JiankangQianchi       317.890       537.740         9.021         0.795         4.827
  YS02001757CaochengTiaoxuchi       422.760       709.662         9.856         0.740         4.926
  WSF200WS02003060           458.902       788.502        15.257         1.466         8.405
  1                         1940.154      3166.926       153.127        18.616        94.320
  CC-Pump-1                  182.238       308.308         4.234         0.320         2.119
  CC-Pump-2                   68.865       116.282         1.596         0.120         0.797
  JK-Pump-1                   73.740       124.164         2.081         0.182         1.111
  JK-Pump-2                  115.161       196.744         3.155         0.275         1.677
  XR-Pump-1                  349.903       562.194        32.341         4.019        20.142
  XR-Pump-2                  349.903       562.194        32.341         4.019        20.142
  XR-Pump-3                  306.070       491.702        28.314         3.519        17.635
  XR-Pump-4                  306.070       491.702        28.314         3.519        17.635
  

  Analysis begun on:  Sun Jul 11 15:46:28 2021
  Analysis ended on:  Sun Jul 11 15:46:32 2021
  Total elapsed time: 00:00:04