
  EPA STORM WATER MANAGEMENT MODEL - VERSION 5.1 (Build 5.3.0.dev0)
  --------------------------------------------------------------

  WARNING 04: minimum elevation drop used for Conduit WS02004404WS02004405
  WARNING 03: negative offset ignored for Link YS02001904YS02001907
  
  *********************************************************
  NOTE: The summary statistics displayed in this report are
  based on results found at every computational time step,  
  not just on results from each reporting time step.
  *********************************************************
  
  ****************
  Analysis Options
  ****************
  Flow Units ............... LPS
  Process Models:
    Rainfall/Runoff ........ YES
    RDII ................... NO
    Snowmelt ............... NO
    Groundwater ............ NO
    Flow Routing ........... YES
    Ponding Allowed ........ NO
    Water Quality .......... YES
  Infiltration Method ...... HORTON
  Flow Routing Method ...... DYNWAVE
  Surcharge Method ......... EXTRAN
  Starting Date ............ 08/28/2015 08:00:00
  Ending Date .............. 08/28/2015 15:50:00
  Antecedent Dry Days ...... 8.0
  Report Time Step ......... 00:01:00
  Wet Time Step ............ 00:01:00
  Dry Time Step ............ 00:01:00
  Routing Time Step ........ 5.00 sec
  Variable Time Step ....... YES
  Maximum Trials ........... 8
  Number of Threads ........ 4
  Head Tolerance ........... 0.001500 m
  
  
  **************************        Volume         Depth
  Runoff Quantity Continuity     hectare-m            mm
  **************************     ---------       -------
  Total Precipitation ......         2.813         6.158
  Evaporation Loss .........         0.000         0.000
  Infiltration Loss ........         0.593         1.299
  Surface Runoff ...........         1.656         3.627
  Final Storage ............         0.563         1.234
  Continuity Error (%) .....        -0.022
  
  
  **************************           COD            SS            TN            TP         NH4-N
  Runoff Quality Continuity             kg            kg            kg            kg            kg
  **************************    ----------    ----------    ----------    ----------    ----------
  Initial Buildup ..........     41378.656     70582.865      1804.177       168.684      1032.807
  Surface Buildup ..........        15.816        21.456         3.041         0.280         1.797
  Wet Deposition ...........         0.000         0.000         0.000         0.000         0.000
  Sweeping Removal .........         0.000         0.000         0.000         0.000         0.000
  Infiltration Loss ........        31.440        55.895         0.616         0.042         0.290
  BMP Removal ..............         0.000         0.000         0.000         0.000         0.000
  Surface Runoff ...........      1035.842      1785.332        20.825         1.358         9.823
  Remaining Buildup ........     40326.851     68762.515      1785.770       167.564      1024.489
  Continuity Error (%) .....         0.001         0.001         0.000         0.000         0.000
  
  
  **************************        Volume        Volume
  Flow Routing Continuity        hectare-m      10^6 ltr
  **************************     ---------     ---------
  Dry Weather Inflow .......         0.616         6.165
  Wet Weather Inflow .......         1.656        16.556
  Groundwater Inflow .......         0.000         0.000
  RDII Inflow ..............         0.000         0.000
  External Inflow ..........         0.102         1.024
  External Outflow .........         1.704        17.037
  Flooding Loss ............         0.357         3.567
  Evaporation Loss .........         0.000         0.000
  Exfiltration Loss ........         0.000         0.000
  Initial Stored Volume ....         0.076         0.761
  Final Stored Volume ......         0.503         5.032
  Continuity Error (%) .....        -4.615
  
  
  **************************           COD            SS            TN            TP         NH4-N
  Quality Routing Continuity            kg            kg            kg            kg            kg
  **************************    ----------    ----------    ----------    ----------    ----------
  Dry Weather Inflow .......      1541.201      2465.922       147.955        18.494        92.472
  Wet Weather Inflow .......      1035.478      1784.751        20.817         1.357         9.819
  Groundwater Inflow .......         0.000         0.000         0.000         0.000         0.000
  RDII Inflow ..............         0.000         0.000         0.000         0.000         0.000
  External Inflow ..........       183.418       293.469        17.608         2.201        11.005
  External Outflow .........      2030.207      3331.220       155.496        18.820        95.563
  Flooding Loss ............       200.926       345.335         4.959         0.406         2.563
  Exfiltration Loss ........         0.000         0.000         0.000         0.000         0.000
  Mass Reacted .............         0.000         0.000         0.000         0.000         0.000
  Initial Stored Mass ......         0.000         0.000         0.000         0.000         0.000
  Final Stored Mass ........       373.447       610.833        18.573         2.031        10.885
  Continuity Error (%) .....         5.634         5.650         3.944         3.608         3.782
  
  
  *************************
  Highest Continuity Errors
  *************************
  Node YS02001774 (33.22%)
  Node HS02004842 (23.87%)
  Node JK-storage (-20.85%)
  Node YS02001884 (18.00%)
  Node YSB1171 (5.32%)
  
  
  ***************************
  Time-Step Critical Elements
  ***************************
  Link WS02006252WS02006251 (70.84%)
  Link WS02006280WS02006229 (8.99%)
  Link YS02001793JiankangQianchi (3.76%)
  Link WS02006238WS02006235 (3.31%)
  Link WS02006235WS02006234 (2.27%)
  
  
  ********************************
  Highest Flow Instability Indexes
  ********************************
  Link WS02006113WS02006111 (41)
  Link YS02001779YS02001774 (30)
  Link YS02001774YS02001770 (28)
  Link WS02006111WS02006112 (25)
  Link YS02001762YS02001759 (23)
  
  
  *************************
  Routing Time Step Summary
  *************************
  Minimum Time Step           :     0.00 sec
  Average Time Step           :     1.15 sec
  Maximum Time Step           :     5.00 sec
  Percent in Steady State     :    -0.00
  Average Iterations per Step :     4.06
  Percent Not Converging      :    18.45
  
  
  ***************************
  Subcatchment Runoff Summary
  ***************************
  
  ------------------------------------------------------------------------------------------------------------------------------
                            Total      Total      Total      Total     Imperv       Perv      Total       Total     Peak  Runoff
                           Precip      Runon       Evap      Infil     Runoff     Runoff     Runoff      Runoff   Runoff   Coeff
  Subcatchment                 mm         mm         mm         mm         mm         mm         mm    10^6 ltr      LPS
  ------------------------------------------------------------------------------------------------------------------------------
  sub0                       6.16       0.00       0.00       0.42       5.68       0.01       5.70        0.00     2.01   0.925
  sub1                       6.16       0.00       0.00       0.67       5.39       0.01       5.40        0.04    11.29   0.877
  sub2                       6.16       0.00       0.00       2.27       3.80       0.01       3.80        0.04    10.07   0.618
  sub3                       6.16       0.00       0.00       2.27       3.76       0.00       3.77        0.08    20.82   0.612
  sub4                       6.16       0.00       0.00       0.67       5.25       0.00       5.25        0.11    23.37   0.853
  sub5                       6.16       0.00       0.00       0.42       5.64       0.01       5.64        0.06    20.09   0.916
  sub7                       6.16       0.00       0.00       0.54       5.54       0.01       5.55        0.02     6.92   0.902
  sub8                       6.16       0.00       0.00       0.54       5.53       0.01       5.54        0.04    12.35   0.900
  sub9                       6.16       0.00       0.00       0.55       5.53       0.01       5.54        0.03     9.17   0.900
  sub10                      6.16       0.00       0.00       0.48       5.58       0.01       5.59        0.06    19.99   0.908
  sub11                      6.16       0.00       0.00       0.48       5.60       0.01       5.61        0.07    23.15   0.911
  sub12                      6.16       0.00       0.00       0.79       5.31       0.02       5.33        0.05    18.98   0.865
  sub14                      6.16       0.00       0.00       0.55       5.53       0.01       5.54        0.05    17.95   0.899
  sub15                      6.16       0.00       0.00       1.84       4.25       0.01       4.26        0.07    24.41   0.692
  sub16                      6.16       0.00       0.00       2.02       4.09       0.01       4.10        0.04    16.85   0.666
  sub17                      6.16       0.00       0.00       1.96       4.15       0.01       4.16        0.04    13.70   0.675
  sub22                      6.16       0.00       0.00       2.64       3.47       0.01       3.48        0.22    79.00   0.565
  sub23                      6.16       0.00       0.00       2.27       3.84       0.01       3.85        0.18    67.11   0.625
  sub60                      6.16       0.00       0.00       0.74       3.98       0.00       3.99        1.21   115.83   0.647
  sub61                      6.16       0.00       0.00       1.05       4.18       0.00       4.18        1.29   146.31   0.680
  sub62                      6.16       0.00       0.00       0.49       4.51       0.00       4.51        1.39   149.21   0.732
  sub63                      6.16       0.00       0.00       1.78       3.70       0.00       3.70        1.12   136.96   0.601
  sub64                      6.16       0.00       0.00       0.92       3.81       0.00       3.81        1.16   109.97   0.619
  sub65                      6.16       0.00       0.00       0.80       3.87       0.00       3.87        1.19   111.56   0.628
  sub66                      6.16       0.00       0.00       1.79       3.31       0.00       3.31        1.01   100.98   0.537
  sub67                      6.16       0.00       0.00       0.49       4.88       0.00       4.88        1.51   192.87   0.793
  sub68                      6.16       0.00       0.00       0.86       4.43       0.00       4.43        1.36   162.06   0.720
  sub69                      6.16       0.00       0.00       0.92       4.71       0.00       4.71        1.10   162.35   0.765
  sub70                      6.16       4.81       0.00       3.71       5.99       0.02       6.00        1.37   132.82   0.547
  sub71                      6.16       0.00       0.00       0.49       4.34       0.00       4.34        1.03   103.88   0.705
  sub72                      6.16       0.00       0.00       0.43       3.19       0.00       3.19        0.65    49.97   0.519
  1                          6.16       5.84       0.00       1.31       6.27       1.09       7.36        1.73   129.22   0.613
  2                          6.16       0.00       0.00       2.89       1.41       0.39       1.80        0.72   100.24   0.293
  
  
  ****************************
  Subcatchment Washoff Summary
  ****************************
  
  ------------------------------------------------------------------------------------------
                                 COD            SS            TN            TP         NH4-N
  Subcatchment                    kg            kg            kg            kg            kg
  ------------------------------------------------------------------------------------------
  sub0                         1.005         1.907         0.016         0.001         0.008
  sub1                         4.002         7.656         0.074         0.005         0.036
  sub2                         2.274         4.181         0.050         0.003         0.023
  sub3                         5.480         9.925         0.119         0.008         0.054
  sub4                         8.656        16.388         0.176         0.010         0.084
  sub5                         9.248        17.476         0.161         0.012         0.078
  sub7                         2.133         4.172         0.040         0.003         0.019
  sub8                         3.194         6.363         0.064         0.004         0.031
  sub9                         2.711         5.328         0.052         0.003         0.025
  sub10                        7.672        14.697         0.139         0.010         0.067
  sub11                        7.637        14.855         0.142         0.009         0.068
  sub12                        6.451        12.368         0.115         0.008         0.055
  sub14                        5.761        11.214         0.109         0.007         0.052
  sub15                        6.761        12.535         0.131         0.009         0.061
  sub16                        4.338         8.068         0.083         0.006         0.038
  sub17                        3.975         7.326         0.073         0.006         0.034
  sub22                       20.006        36.334         0.385         0.029         0.178
  sub23                       12.236        23.063         0.268         0.017         0.122
  sub60                       66.394       113.458         1.402         0.081         0.669
  sub61                       84.288       143.820         1.625         0.106         0.779
  sub62                       88.719       154.097         1.816         0.109         0.868
  sub63                       63.155       106.432         1.347         0.091         0.615
  sub64                       79.428       130.616         1.514         0.106         0.717
  sub65                       81.414       134.463         1.565         0.107         0.743
  sub66                       47.722        79.364         1.056         0.066         0.487
  sub67                      133.873       231.347         2.425         0.172         1.167
  sub68                       94.744       163.715         1.887         0.121         0.896
  sub69                       89.002       156.596         1.713         0.116         0.813
  sub70                      134.734       236.078         2.811         0.187         1.299
  sub71                       58.613       102.564         1.283         0.070         0.611
  sub72                       39.054        62.954         0.765         0.050         0.366
  1                           73.883       130.490         1.593         0.106         0.725
  2                           11.016        18.154         0.353         0.021         0.147
  ------------------------------------------------------------------------------------------
  System                    1259.578      2178.006        25.349         1.661        11.935
  
  
  ******************
  Node Depth Summary
  ******************
  
  ---------------------------------------------------------------------------------
                                 Average  Maximum  Maximum  Time of Max    Reported
                                   Depth    Depth      HGL   Occurrence   Max Depth
  Node                 Type       Meters   Meters   Meters  days hr:min      Meters
  ---------------------------------------------------------------------------------
  WS02001211           JUNCTION     0.71     0.79     5.63     0  03:54        0.79
  WS02001212           JUNCTION     0.43     0.51     5.57     0  03:53        0.51
  WS02001213           JUNCTION     0.67     0.76     5.52     0  03:52        0.76
  WS02003069           JUNCTION     0.48     0.58     5.17     0  03:51        0.58
  WS02003072           JUNCTION     0.55     0.64     5.01     0  03:52        0.64
  WS02003073           JUNCTION     0.33     0.40     4.46     0  03:52        0.40
  WS02003060           JUNCTION     0.43     0.52     5.45     0  03:50        0.52
  WS02003066           JUNCTION     0.24     0.30     5.85     0  03:48        0.30
  WS02003059           JUNCTION     0.73     0.81     5.50     0  03:52        0.81
  WS02003067           JUNCTION     0.59     0.71     6.03     0  03:48        0.70
  WS02004401           JUNCTION     0.71     0.87     6.87     0  03:45        0.87
  WS02004402           JUNCTION     0.74     0.89     6.85     0  03:46        0.89
  WS02004403           JUNCTION     0.76     0.90     6.83     0  03:46        0.90
  WS02004404           JUNCTION     0.83     0.98     6.83     0  03:46        0.98
  WS02004406           JUNCTION     0.83     0.97     6.80     0  03:46        0.97
  WS02004409           JUNCTION     0.52     0.68     6.45     0  03:48        0.68
  WS02004410           JUNCTION     0.54     0.69     6.41     0  03:48        0.69
  WS02004411           JUNCTION     0.55     0.70     6.38     0  03:48        0.70
  WS02004412           JUNCTION     0.57     0.70     6.34     0  03:48        0.70
  WS02004413           JUNCTION     0.72     0.86     6.33     0  03:48        0.86
  WS02004405           JUNCTION     0.83     0.97     6.82     0  03:46        0.97
  WS02006109           JUNCTION     0.80     1.01     7.62     0  03:40        1.00
  WS02006110           JUNCTION     0.78     0.95     7.53     0  03:40        0.94
  WS02006111           JUNCTION     0.23     0.29     7.00     0  03:40        0.29
  WS02006112           JUNCTION     0.88     1.13     7.01     0  03:46        1.08
  WS02006113           JUNCTION     0.36     0.47     7.36     0  03:40        0.47
  WS02006115           JUNCTION     0.60     0.77     6.91     0  03:45        0.77
  WS02006116           JUNCTION     0.68     0.85     6.89     0  03:45        0.85
  WS02006230           JUNCTION     0.80     1.14     7.89     0  03:39        1.14
  WS02006231           JUNCTION     0.55     0.89     8.01     0  03:39        0.89
  WS02006232           JUNCTION     0.69     1.08     8.12     0  03:40        1.08
  WS02006234           JUNCTION     0.64     1.09     8.25     0  03:40        1.08
  WS02006235           JUNCTION     0.68     1.18     8.34     0  03:40        1.17
  WS02006238           JUNCTION     0.71     1.21     8.35     0  03:39        1.19
  WS02006240           JUNCTION     0.63     1.14     8.44     0  03:39        1.14
  WS02006242           JUNCTION     0.69     1.23     8.50     0  03:39        1.22
  WS02006243           JUNCTION     0.58     1.13     8.55     0  03:41        1.13
  WS02006245           JUNCTION     0.56     1.12     8.61     0  04:58        1.11
  WS02006247           JUNCTION     0.57     1.14     8.64     0  04:58        1.13
  WS02006248           JUNCTION     0.52     1.09     8.67     0  04:58        1.08
  WS02006249           JUNCTION     0.54     1.09     8.69     0  03:39        1.09
  WS02006239           JUNCTION     0.68     1.18     8.39     0  03:42        1.18
  WS02006251           JUNCTION     0.52     1.36     9.03     0  03:39        1.20
  WS02006252           JUNCTION     0.36     0.92     9.16     0  03:39        0.76
  WS02006253           JUNCTION     0.54     1.41     9.06     0  03:39        1.24
  WS02006256           JUNCTION     1.57     2.35     9.28     0  00:00        2.35
  WS02004138           JUNCTION     0.16     0.20     7.45     0  00:00        0.19
  WS02004139           JUNCTION     0.65     0.74     5.65     0  03:54        0.74
  WS02004407           JUNCTION     0.24     0.30     6.61     0  03:46        0.30
  WS02006228           JUNCTION     0.80     1.06     7.71     0  03:40        1.05
  WS02006229           JUNCTION     0.78     1.05     7.75     0  03:39        1.05
  WS02006280           JUNCTION     0.05     0.18     8.45     0  02:12        0.18
  WS02006284           JUNCTION     0.34     0.53     8.92     0  02:12        0.52
  WS02006287           JUNCTION     0.07     0.26     9.21     0  02:12        0.26
  WSF200               JUNCTION     0.23     0.31     5.54     0  03:48        0.31
  HS02004901           JUNCTION     0.10     0.27    10.09     0  02:10        0.27
  HS02004881           JUNCTION     0.00     0.03     9.06     0  02:11        0.03
  HS02004876           JUNCTION     0.03     0.11     9.14     0  02:06        0.11
  HS02004870           JUNCTION     0.01     0.05     9.34     0  02:12        0.05
  HS02004862           JUNCTION     0.01     0.06     9.45     0  02:13        0.06
  HS02004856           JUNCTION     0.07     0.12     9.54     0  02:12        0.12
  HS02004852           JUNCTION     0.01     0.04     9.55     0  02:13        0.04
  HS02004848           JUNCTION     0.01     0.04     9.64     0  02:12        0.04
  HS02004842           JUNCTION     0.33     0.37     9.64     0  02:11        0.37
  HS02004837           JUNCTION     0.02     0.06     9.64     0  02:11        0.06
  HS02004830           JUNCTION     0.04     0.07     9.54     0  02:12        0.07
  HS02004824           JUNCTION     0.02     0.05     9.45     0  02:14        0.05
  HS02004817           JUNCTION     0.42     0.57     9.41     0  02:12        0.57
  HS02004807           JUNCTION     0.11     0.24     9.41     0  02:12        0.24
  HS02004802           JUNCTION     0.15     0.28     9.40     0  02:12        0.28
  HS02004799           JUNCTION     0.09     0.31     9.52     0  02:10        0.31
  HS02004792           JUNCTION     0.02     0.13     9.65     0  02:10        0.13
  HS02004788           JUNCTION     0.02     0.09     9.99     0  02:11        0.09
  HS02004785           JUNCTION     0.03     0.16    10.06     0  02:10        0.16
  HS02004777           JUNCTION     0.13     0.29    10.09     0  02:10        0.29
  HS02004770           JUNCTION     0.10     0.26    10.09     0  02:10        0.26
  HS02004480           JUNCTION     0.06     0.25     9.49     0  02:11        0.25
  HS02004479           JUNCTION     0.09     0.28     9.49     0  02:11        0.28
  HS02004478           JUNCTION     0.05     0.16     9.39     0  02:12        0.16
  YS02001745           JUNCTION     0.65     0.85     8.36     0  04:01        0.84
  YS02001748           JUNCTION     1.05     1.30     8.38     0  04:08        1.28
  YS02001751           JUNCTION     1.23     1.51     8.39     0  04:08        1.48
  YS02001754           JUNCTION     1.48     1.79     8.40     0  04:08        1.76
  YS02001762           JUNCTION     1.68     2.01     8.41     0  03:56        1.97
  YS02001765           JUNCTION     1.63     1.96     8.41     0  03:56        1.92
  YS02001767           JUNCTION     1.60     1.92     8.40     0  03:44        1.89
  YS02001770           JUNCTION     1.59     1.91     8.41     0  04:32        1.88
  YS02001774           JUNCTION     1.66     1.98     8.40     0  07:04        1.95
  YS02001779           JUNCTION     1.41     1.68     8.37     0  03:38        1.68
  YS02001882           JUNCTION     0.31     0.58     7.29     0  02:43        0.58
  YS02001884           JUNCTION     0.40     0.68     7.29     0  02:43        0.68
  YS02001759           JUNCTION     1.71     2.05     8.41     0  04:08        2.00
  YS02001887           JUNCTION     0.48     0.76     7.29     0  02:44        0.76
  YS02001890           JUNCTION     0.51     0.79     7.29     0  02:42        0.79
  YS02001898           JUNCTION     0.28     0.54     7.28     0  02:43        0.54
  YS02001901           JUNCTION     0.40     0.67     7.28     0  02:41        0.67
  YS02001904           JUNCTION     0.38     0.64     7.27     0  02:43        0.64
  YS02001907           JUNCTION     0.71     0.98     7.27     0  02:43        0.98
  YS02001910           JUNCTION     0.50     0.77     7.27     0  02:43        0.77
  YS02001915           JUNCTION     0.29     0.56     7.27     0  02:42        0.56
  YS02001918           JUNCTION     0.09     0.21     7.27     0  02:41        0.21
  YS02001619           JUNCTION     1.19     1.57     8.50     0  07:05        1.46
  YS02001629           JUNCTION     1.54     1.85     8.40     0  03:38        1.84
  YS02001641           JUNCTION     1.65     1.94     8.38     0  03:42        1.94
  YS02001644           JUNCTION     1.65     1.92     8.35     0  03:35        1.92
  YS02001652           JUNCTION     1.49     1.91     8.50     0  03:56        1.80
  YS02001655           JUNCTION     1.26     1.72     8.57     0  03:56        1.56
  YS02001920           JUNCTION     0.19     0.28     7.29     0  02:44        0.28
  YS02001923           JUNCTION     0.07     0.10     7.36     0  03:01        0.10
  YS02001926           JUNCTION     0.16     0.21     7.65     0  03:01        0.21
  YS02001929           JUNCTION     0.08     0.11     7.80     0  03:01        0.11
  YS02001658           JUNCTION     0.99     1.49     8.64     0  03:56        1.28
  YS02001661           JUNCTION     0.76     1.28     8.68     0  03:56        1.04
  YS02001664           JUNCTION     0.30     0.56     8.49     0  03:54        0.52
  YS02001622           JUNCTION     1.21     1.56     8.46     0  07:05        1.48
  YS02001633           JUNCTION     1.63     1.96     8.41     0  03:38        1.93
  YS02001649           JUNCTION     1.69     2.05     8.44     0  03:56        1.99
  YS02001757           JUNCTION     1.81     2.15     8.42     0  03:56        2.11
  YS02001895           JUNCTION     0.27     0.54     7.28     0  02:42        0.54
  YS02001625           JUNCTION     1.50     1.78     8.38     0  03:37        1.78
  YS02163301           JUNCTION     1.57     1.89     8.41     0  03:38        1.87
  YS02163601           JUNCTION     1.69     2.00     8.40     0  03:38        1.98
  YS02164001           JUNCTION     1.63     1.93     8.39     0  03:38        1.91
  YS02001647           JUNCTION     1.48     1.80     8.41     0  03:56        1.75
  YSB1154              JUNCTION     0.23     0.43     9.49     0  02:11        0.43
  YSB6556              JUNCTION     0.13     0.32     9.49     0  02:10        0.32
  YSB1174              JUNCTION     0.18     0.38     9.49     0  02:11        0.38
  YSB1171              JUNCTION     0.39     0.59     9.49     0  02:11        0.59
  YS02006553           JUNCTION     0.71     0.99     7.27     0  02:40        0.98
  YS02006561           JUNCTION     0.15     0.29     6.95     0  02:37        0.29
  YS02006556           JUNCTION     0.69     0.95     7.26     0  02:49        0.95
  YS02006558           JUNCTION     0.73     1.00     7.27     0  02:49        1.00
  YS02001783           JUNCTION     0.27     0.73     6.87     0  03:07        0.71
  YS02001784           JUNCTION     0.30     0.80     6.86     0  03:07        0.78
  YS02001786           JUNCTION     0.26     0.78     6.81     0  03:06        0.77
  YS02001788           JUNCTION     0.20     0.84     6.82     0  03:07        0.76
  YS02001790           JUNCTION     0.27     1.96     7.60     0  04:35        1.05
  YS02001791           JUNCTION     0.22     1.43     6.90     0  04:36        1.17
  YS02001793           JUNCTION     0.29     1.80     6.63     0  03:07        1.78
  WSC                  OUTFALL      0.33     0.40     1.07     0  03:53        0.40
  JK-storage           STORAGE      1.82     5.80     6.60     0  03:05        5.80
  CC-storage           STORAGE      1.09     1.35     8.35     0  04:03        1.35
  XR-storage           STORAGE      2.83     6.32     4.32     0  06:46        6.32
  
  
  *******************
  Node Inflow Summary
  *******************
  
  -------------------------------------------------------------------------------------------------
                                  Maximum  Maximum                  Lateral       Total        Flow
                                  Lateral    Total  Time of Max      Inflow      Inflow     Balance
                                   Inflow   Inflow   Occurrence      Volume      Volume       Error
  Node                 Type           LPS      LPS  days hr:min    10^6 ltr    10^6 ltr     Percent
  -------------------------------------------------------------------------------------------------
  WS02001211           JUNCTION      7.35   389.17     0  07:38       0.207        8.67       0.466
  WS02001212           JUNCTION      0.00   390.89     0  07:38           0        8.63       0.275
  WS02001213           JUNCTION      0.00   392.46     0  07:38           0        8.62       0.332
  WS02003069           JUNCTION      0.32   945.23     0  03:51     0.00902        17.1       0.193
  WS02003072           JUNCTION      0.00   945.17     0  03:51           0        17.1       0.236
  WS02003073           JUNCTION      1.82   947.03     0  03:52      0.0514        17.1       0.271
  WS02003060           JUNCTION     16.53   944.90     0  03:50       0.466        17.2       0.184
  WS02003066           JUNCTION      0.00   549.36     0  03:48           0        8.14       0.050
  WS02003059           JUNCTION      0.00   395.14     0  07:39           0        8.61       0.458
  WS02003067           JUNCTION      0.00   549.19     0  03:48           0        8.15       0.107
  WS02004401           JUNCTION      0.00   557.26     0  03:45           0        8.36       0.232
  WS02004402           JUNCTION      0.00   556.75     0  03:45           0        8.34       0.222
  WS02004403           JUNCTION      0.00   556.34     0  03:46           0        8.33       0.203
  WS02004404           JUNCTION      0.16   556.38     0  03:46     0.00457        8.31       0.155
  WS02004406           JUNCTION      0.00   556.28     0  03:46           0        8.28       0.378
  WS02004409           JUNCTION      0.00   556.05     0  03:46           0        8.25       0.174
  WS02004410           JUNCTION      0.00   553.05     0  03:47           0        8.23       0.201
  WS02004411           JUNCTION      0.00   551.09     0  03:47           0        8.21       0.208
  WS02004412           JUNCTION      0.00   549.93     0  03:47           0         8.2       0.229
  WS02004413           JUNCTION      0.00   549.32     0  03:48           0        8.18       0.345
  WS02004405           JUNCTION      0.04   556.33     0  03:46     0.00107         8.3       0.235
  WS02006109           JUNCTION      1.23   565.16     0  03:40      0.0347        8.44       0.223
  WS02006110           JUNCTION      0.00   564.93     0  03:40           0        8.42       0.212
  WS02006111           JUNCTION      0.00   587.87     0  03:40           0        8.39       0.041
  WS02006112           JUNCTION     13.70   566.98     0  03:40      0.0357        8.42       0.302
  WS02006113           JUNCTION      0.00   565.67     0  03:40           0         8.4       0.097
  WS02006115           JUNCTION      0.00   572.60     0  03:45           0         8.4       0.211
  WS02006116           JUNCTION      0.00   559.19     0  03:45           0        8.38       0.208
  WS02006230           JUNCTION     10.28   531.79     0  05:03        0.29         7.3       0.151
  WS02006231           JUNCTION      0.00   521.77     0  05:01           0        7.02       0.136
  WS02006232           JUNCTION      0.00   521.79     0  05:01           0        7.02       0.214
  WS02006234           JUNCTION      0.00   522.58     0  05:01           0        7.03       0.089
  WS02006235           JUNCTION      0.00   522.79     0  05:03           0        7.09       0.129
  WS02006238           JUNCTION      0.00   400.99     0  05:56           0        4.49       0.160
  WS02006240           JUNCTION      0.00   401.01     0  05:59           0        4.46       0.239
  WS02006242           JUNCTION      0.00   401.07     0  05:58           0        4.45       0.287
  WS02006243           JUNCTION      0.00   401.04     0  05:59           0        4.45       0.142
  WS02006245           JUNCTION      0.00   401.20     0  05:59           0        4.45       0.185
  WS02006247           JUNCTION      0.00   401.06     0  05:57           0        4.46       0.148
  WS02006248           JUNCTION      0.00   401.08     0  05:57           0        4.46       0.091
  WS02006249           JUNCTION      0.00   426.05     0  03:39           0        4.57       0.218
  WS02006239           JUNCTION      0.00   400.95     0  05:56           0        4.47       0.177
  WS02006251           JUNCTION      0.08   409.52     0  07:00     0.00217        4.63       0.183
  WS02006252           JUNCTION      0.00   400.00     0  05:40           0        4.38       0.011
  WS02006253           JUNCTION      2.01    75.49     0  03:38     0.00461       0.255       1.607
  WS02006256           JUNCTION      0.00   983.00     0  00:00           0        5.24      -0.024
  WS02004138           JUNCTION      0.00   380.00     0  00:00           0        8.49       0.071
  WS02004139           JUNCTION      0.32   396.51     0  00:00     0.00905         8.5       0.536
  WS02004407           JUNCTION      0.00   556.20     0  03:46           0        8.25       0.077
  WS02006228           JUNCTION      0.00   564.14     0  03:40           0        8.42       0.175
  WS02006229           JUNCTION      0.00   560.48     0  03:41           0        8.44       0.157
  WS02006280           JUNCTION      0.00   314.50     0  02:12           0        1.16       0.006
  WS02006284           JUNCTION      0.10   314.47     0  02:12      0.0027        1.16       0.103
  WS02006287           JUNCTION      0.00   314.33     0  02:12           0        1.16       0.062
  WSF200               JUNCTION      0.00   549.43     0  03:49           0        8.14       0.043
  HS02004901           JUNCTION     16.85    16.85     0  02:06      0.0429      0.0431       4.253
  HS02004881           JUNCTION      6.92    62.05     0  02:11      0.0187       0.199       0.073
  HS02004876           JUNCTION     11.29    55.33     0  02:12      0.0359       0.181       0.294
  HS02004870           JUNCTION     12.35    44.31     0  02:12      0.0354       0.145       0.073
  HS02004862           JUNCTION     10.27    32.75     0  02:12      0.0411        0.11       0.154
  HS02004856           JUNCTION      9.17    22.60     0  02:12      0.0266        0.07       2.102
  HS02004852           JUNCTION      0.00    13.99     0  02:12           0      0.0434       0.118
  HS02004848           JUNCTION     20.82    20.82     0  02:13      0.0848      0.0848       0.051
  HS02004842           JUNCTION      0.00     7.53     0  02:22           0      0.0545      31.362
  HS02004837           JUNCTION     26.34    32.67     0  02:11       0.241       0.282       0.289
  HS02004830           JUNCTION      0.15    32.79     0  02:11     0.00423       0.272       0.454
  HS02004824           JUNCTION     23.42    56.00     0  02:14       0.111       0.382       0.140
  HS02004817           JUNCTION      0.60    56.59     0  02:14      0.0169       0.399       4.363
  HS02004807           JUNCTION     23.15    77.88     0  02:13      0.0651       0.447       0.953
  HS02004802           JUNCTION      0.00    78.40     0  02:14           0       0.443       0.927
  HS02004799           JUNCTION     17.95   201.50     0  02:10      0.0527       0.621       0.379
  HS02004792           JUNCTION     79.28   183.88     0  02:10       0.228       0.568       0.072
  HS02004788           JUNCTION     26.08   106.85     0  02:10        0.12       0.342       0.114
  HS02004785           JUNCTION      0.15    81.19     0  02:10     0.00423       0.223       0.215
  HS02004777           JUNCTION      0.03    81.60     0  02:09    0.000846       0.224       2.368
  HS02004770           JUNCTION     67.11    82.80     0  02:08       0.183       0.225       1.396
  HS02004480           JUNCTION      0.00   237.78     0  02:10           0       0.728       0.104
  HS02004479           JUNCTION      0.00    37.07     0  02:12           0        0.12       0.613
  HS02004478           JUNCTION      0.00   314.30     0  02:12           0        1.16       0.049
  YS02001745           JUNCTION    115.83   125.37     0  02:53        1.21        1.21       0.583
  YS02001748           JUNCTION      0.04   371.17     0  02:46     0.00127        1.22       1.713
  YS02001751           JUNCTION      0.01   411.35     0  02:46     0.00031         1.2       1.651
  YS02001754           JUNCTION      0.26   181.00     0  02:48     0.00733        1.17       2.063
  YS02001762           JUNCTION      0.00   195.14     0  02:48           0        1.31       1.628
  YS02001765           JUNCTION      0.00   191.44     0  02:48           0        1.32       1.902
  YS02001767           JUNCTION      0.54   188.98     0  02:48      0.0151        1.34       2.747
  YS02001770           JUNCTION    149.36   191.20     0  02:48        1.39        1.41       2.286
  YS02001774           JUNCTION      0.00    59.29     0  02:48           0      0.0766      49.738
  YS02001779           JUNCTION      0.01    58.81     0  02:48    0.000141       0.032      88.951
  YS02001882           JUNCTION      0.00     5.38     0  02:05           0     0.00755      32.109
  YS02001884           JUNCTION      0.00    16.05     0  02:03           0      0.0289      21.951
  YS02001759           JUNCTION    146.35   341.68     0  02:48        1.29        2.57       0.894
  YS02001887           JUNCTION    193.32   196.10     0  02:30        1.52        1.54       0.491
  YS02001890           JUNCTION      0.00   193.39     0  02:28           0         1.5       0.549
  YS02001898           JUNCTION      0.00   192.71     0  02:28           0        1.49       0.168
  YS02001901           JUNCTION      0.00   192.89     0  02:29           0        1.49       0.397
  YS02001904           JUNCTION      0.00   194.10     0  02:29           0        1.49       0.367
  YS02001907           JUNCTION      0.00   352.11     0  02:49           0        3.23       0.707
  YS02001910           JUNCTION      0.00   164.25     0  02:54           0        1.75       0.610
  YS02001915           JUNCTION    103.90   159.84     0  02:50        1.03        1.75       0.284
  YS02001918           JUNCTION      0.00    54.03     0  02:59           0       0.728       0.188
  YS02001619           JUNCTION    100.98   100.98     0  02:43        1.01        1.01       1.168
  YS02001629           JUNCTION      0.00   185.71     0  02:54           0       0.937       3.027
  YS02001641           JUNCTION      0.00   234.39     0  02:48           0        2.03       1.036
  YS02001644           JUNCTION    110.01   342.42     0  02:48        1.16        3.18       0.815
  YS02001652           JUNCTION      0.00   192.54     0  02:47           0        1.08       2.177
  YS02001655           JUNCTION      0.15   365.49     0  02:46     0.00434        1.11       1.786
  YS02001920           JUNCTION      2.87    52.88     0  03:01      0.0809        0.73       0.317
  YS02001923           JUNCTION      0.04    50.01     0  03:01     0.00106        0.65       0.057
  YS02001926           JUNCTION      0.05    50.01     0  03:01     0.00147       0.651       0.394
  YS02001929           JUNCTION     49.97    49.97     0  03:01        0.65        0.65       0.055
  YS02001658           JUNCTION      0.00   368.35     0  03:06           0        1.15       1.533
  YS02001661           JUNCTION      0.00   410.48     0  03:37           0         1.5       0.320
  YS02001664           JUNCTION    136.96   335.46     0  03:36        1.12        1.48       0.111
  YS02001622           JUNCTION      0.00   138.85     0  02:58           0           1       3.193
  YS02001633           JUNCTION    111.76   241.00     0  02:48        1.19        2.09       1.546
  YS02001649           JUNCTION      0.00   493.07     0  02:47           0        3.71       1.016
  YS02001757           JUNCTION      0.00   879.77     0  02:48           0        7.32       1.270
  YS02001895           JUNCTION      0.00   194.98     0  02:30           0         1.5       0.269
  YS02001625           JUNCTION      0.00   185.80     0  02:52           0       0.972       4.188
  YS02163301           JUNCTION      0.00   130.61     0  02:48           0       0.925       2.628
  YS02163601           JUNCTION      0.11   240.14     0  02:48      0.0031        2.05       1.473
  YS02164001           JUNCTION      0.00   238.68     0  02:48           0        2.03       0.983
  YS02001647           JUNCTION      0.00   341.70     0  02:49           0         2.7       1.038
  YSB1154              JUNCTION     20.09    20.09     0  02:09      0.0639      0.0651       2.266
  YSB6556              JUNCTION      0.00    19.99     0  02:11           0       0.066       1.925
  YSB1174              JUNCTION     18.98    18.98     0  02:06      0.0465      0.0473       2.787
  YSB1171              JUNCTION      0.00    36.88     0  02:11           0       0.119       5.618
  YS02006553           JUNCTION      0.00   352.40     0  02:49           0        3.21       0.457
  YS02006561           JUNCTION      0.00   556.08     0  02:38           0        4.55       0.008
  YS02006556           JUNCTION      0.00   355.98     0  02:49           0        3.22       0.331
  YS02006558           JUNCTION    162.94   518.55     0  02:49        1.39        4.58       0.108
  YS02001783           JUNCTION      0.00   509.22     0  02:49           0        4.55       0.037
  YS02001784           JUNCTION      1.06   508.04     0  02:49      0.0299        4.58       0.059
  YS02001786           JUNCTION      0.06   507.66     0  02:49     0.00159        4.58       0.059
  YS02001788           JUNCTION      0.07   507.69     0  02:50       0.002        4.58       0.034
  YS02001790           JUNCTION      0.15   529.45     0  03:26     0.00437        4.58       0.028
  YS02001791           JUNCTION      0.00   579.84     0  03:27           0        4.58       0.027
  YS02001793           JUNCTION      0.00   615.99     0  03:27           0        4.58      -0.055
  WSC                  OUTFALL       0.00   947.16     0  03:53           0          17       0.000
  JK-storage           STORAGE       0.00   762.97     0  03:02           0        4.73     -17.250
  CC-storage           STORAGE       0.00   879.39     0  02:49           0        7.22       0.771
  XR-storage           STORAGE     410.94   410.94     0  02:45        8.09        8.69      -1.016
  
  
  **********************
  Node Surcharge Summary
  **********************
  
  Surcharging occurs when water rises above the top of the highest conduit.
  ---------------------------------------------------------------------
                                               Max. Height   Min. Depth
                                   Hours       Above Crown    Below Rim
  Node                 Type      Surcharged         Meters       Meters
  ---------------------------------------------------------------------
  WS02006109           JUNCTION        3.68          0.185        1.635
  WS02006110           JUNCTION        0.81          0.036        1.814
  WS02006112           JUNCTION        1.11          0.129        1.551
  WS02006230           JUNCTION        0.39          0.062        1.508
  WS02006231           JUNCTION        1.09          0.179        1.351
  WS02006232           JUNCTION        3.31          0.381        1.099
  WS02006234           JUNCTION        2.40          0.370        0.870
  WS02006235           JUNCTION        3.04          0.468        0.822
  WS02006238           JUNCTION        3.17          0.489        0.941
  WS02006240           JUNCTION        2.81          0.434        0.956
  WS02006242           JUNCTION        3.08          0.497        0.323
  WS02006243           JUNCTION        2.12          0.423        0.347
  WS02006245           JUNCTION        1.83          0.411        0.439
  WS02006247           JUNCTION        1.89          0.428        0.332
  WS02006248           JUNCTION        1.56          0.365        0.015
  WS02006249           JUNCTION        1.66          0.390        0.000
  WS02006239           JUNCTION        2.85          0.443        0.847
  WS02006251           JUNCTION        0.66          0.334        0.846
  WS02006252           JUNCTION        2.39          0.522        0.578
  WS02006253           JUNCTION        0.69          0.371        2.109
  WS02006256           JUNCTION        6.22          2.050        0.000
  WS02006228           JUNCTION        3.63          0.227        1.973
  YS02001748           JUNCTION        3.70          0.220        0.970
  YS02001751           JUNCTION        4.82          0.508        0.692
  YS02001754           JUNCTION        5.20          0.743        0.407
  YS02001762           JUNCTION        5.52          1.012        0.138
  YS02001765           JUNCTION        5.49          0.957        0.143
  YS02001767           JUNCTION        5.47          0.915        0.115
  YS02001770           JUNCTION        5.45          0.883        0.037
  YS02001774           JUNCTION        5.51          0.979        0.071
  YS02001779           JUNCTION        5.09          0.680        0.000
  YS02001759           JUNCTION        5.54          1.048        0.162
  YS02001619           JUNCTION        4.77          0.570        0.040
  YS02001629           JUNCTION        4.78          0.470        0.000
  YS02001641           JUNCTION        5.50          0.943        0.157
  YS02001644           JUNCTION        5.50          0.920        0.000
  YS02001652           JUNCTION        5.33          0.876        0.254
  YS02001655           JUNCTION        4.87          0.722        0.478
  YS02001658           JUNCTION        3.77          0.495        0.805
  YS02001661           JUNCTION        0.02          0.209        1.181
  YS02001622           JUNCTION        4.82          0.559        0.061
  YS02001633           JUNCTION        5.49          0.935        0.125
  YS02001649           JUNCTION        5.52          1.050        0.000
  YS02001757           JUNCTION        5.58          1.154        0.056
  YS02001625           JUNCTION        5.41          0.780        0.000
  YS02163301           JUNCTION        5.47          0.892        0.138
  YS02163601           JUNCTION        5.52          1.000        0.080
  YS02164001           JUNCTION        5.49          0.929        0.171
  YS02001647           JUNCTION        5.37          0.796        0.104
  YS02001788           JUNCTION        0.01          0.042        1.438
  YS02001790           JUNCTION        0.37          1.157        0.000
  YS02001791           JUNCTION        0.52          0.631        1.289
  YS02001793           JUNCTION        0.83          0.799        1.801
  
  
  *********************
  Node Flooding Summary
  *********************
  
  Flooding refers to all water that overflows a node, whether it ponds or not.
  --------------------------------------------------------------------------
                                                             Total   Maximum
                                 Maximum   Time of Max       Flood    Ponded
                        Hours       Rate    Occurrence      Volume     Depth
  Node                 Flooded       LPS   days hr:min    10^6 ltr    Meters
  --------------------------------------------------------------------------
  WS02006249              0.61    113.40      0  03:39       0.101     0.000
  WS02006256              2.24    978.40      0  00:00       2.596     0.000
  YS02001779              0.38     13.40      0  04:08       0.003     0.000
  YS02001629              0.01     27.87      0  07:05       0.000     0.000
  YS02001644              1.71    244.87      0  04:08       0.450     0.000
  YS02001649              0.01      1.60      0  03:56       0.000     0.000
  YS02001625              0.07     26.29      0  03:38       0.002     0.000
  YS02001790              0.01     85.71      0  04:35       0.000     0.000
  JK-storage              0.31    496.20      0  03:08       0.412     0.000
  
  
  **********************
  Storage Volume Summary
  **********************
  
  --------------------------------------------------------------------------------------------------
                         Average     Avg  Evap Exfil       Maximum     Max    Time of Max    Maximum
                          Volume    Pcnt  Pcnt  Pcnt        Volume    Pcnt     Occurrence    Outflow
  Storage Unit           1000 m3    Full  Loss  Loss       1000 m3    Full    days hr:min        LPS
  --------------------------------------------------------------------------------------------------
  JK-storage               0.091      31     0     0         0.291     100       0  03:05     983.00
  CC-storage               3.028      19     0     0         3.766      24       0  04:03     400.00
  XR-storage               0.340      37     0     0         0.759      82       0  06:46     380.00
  
  
  ***********************
  Outfall Loading Summary
  ***********************
  
  ---------------------------------------------------------------------------------------------------------------------------------
                         Flow       Avg       Max       Total         Total         Total         Total         Total         Total
                         Freq      Flow      Flow      Volume           COD            SS            TN            TP         NH4-N
  Outfall Node           Pcnt       LPS       LPS    10^6 ltr            kg            kg            kg            kg            kg
  ---------------------------------------------------------------------------------------------------------------------------------
  WSC                   99.98    700.27    947.16      17.037      2030.364      3331.473       155.510        18.822        95.572
  ---------------------------------------------------------------------------------------------------------------------------------
  System                99.98    700.27    947.16      17.037      2030.364      3331.473       155.510        18.822        95.572
  
  
  ********************
  Link Flow Summary
  ********************
  
  -----------------------------------------------------------------------------
                                 Maximum  Time of Max   Maximum    Max/    Max/
                                  |Flow|   Occurrence   |Veloc|    Full    Full
  Link                 Type          LPS  days hr:min     m/sec    Flow   Depth
  -----------------------------------------------------------------------------
  WS02003066WSF200     CONDUIT    549.43     0  03:49      2.79    0.09    0.23
  WS02006287WS02006284 CONDUIT    314.38     0  02:12      1.87    0.15    0.27
  WS02006284WS02006280 CONDUIT    314.50     0  02:12      2.11    0.13    0.25
  WS02006280WS02006229 CONDUIT    314.51     0  02:12      3.39    0.07    0.18
  WS02006229WS02006228 CONDUIT    564.14     0  03:40      1.12    1.87    1.00
  WS02006256WS02006235 CONDUIT    288.60     0  00:00      4.23    3.05    1.00
  WS02006253WS02006251 CONDUIT     70.15     0  03:38      0.57    0.21    1.00
  WS02006252WS02006251 CONDUIT    402.91     0  07:00      3.21    1.48    1.00
  WS02006251WS02006249 CONDUIT    426.05     0  03:39      1.11    1.23    1.00
  WS02006249WS02006248 CONDUIT    401.08     0  05:57      1.13    2.20    1.00
  WS02006248WS02006247 CONDUIT    401.06     0  05:57      1.09    0.87    1.00
  WS02006247WS02006245 CONDUIT    401.20     0  05:59      1.07    3.18    1.00
  WS02006245WS02006243 CONDUIT    401.04     0  05:59      1.07    1.19    1.00
  WS02006243WS02006242 CONDUIT    401.07     0  05:58      1.04    0.86    1.00
  WS02006242WS02006240 CONDUIT    401.01     0  05:59      1.04    1.59    1.00
  WS02006240WS02006239 CONDUIT    400.95     0  05:56      1.04    1.26    1.00
  WS02006239WS02006238 CONDUIT    400.99     0  05:56      1.04    1.28    1.00
  WS02006238WS02006235 CONDUIT    401.69     0  05:58      1.46    0.90    1.00
  WS02006235WS02006234 CONDUIT    522.58     0  05:01      1.36    5.51    1.00
  WS02006234WS02006232 CONDUIT    521.79     0  05:01      1.39    1.06    1.00
  WS02006232WS02006231 CONDUIT    521.77     0  05:01      1.36    1.09    1.00
  WS02006231WS02006230 CONDUIT    521.51     0  05:03      1.36    7.91    1.00
  WS02006230WS02006229 CONDUIT    533.27     0  06:40      1.39   11.87    1.00
  WS02006228WS02006109 CONDUIT    563.93     0  03:40      1.12    2.46    1.00
  WS02006116WS02004401 CONDUIT    557.26     0  03:45      0.79    0.77    0.86
  WS02006115WS02006116 CONDUIT    559.19     0  03:45      0.89    0.72    0.78
  WS02006113WS02006111 CONDUIT    587.87     0  03:40      2.50    0.70    0.47
  WS02006112WS02006115 CONDUIT    572.60     0  03:45      0.79    0.34    0.88
  WS02006111WS02006112 CONDUIT    566.56     0  03:40      1.56    0.27    0.68
  WS02006110WS02006113 CONDUIT    565.67     0  03:40      1.33    0.51    0.79
  WS02006109WS02006110 CONDUIT    564.93     0  03:40      1.12    1.09    1.00
  WS02004411WS02004412 CONDUIT    549.93     0  03:47      0.94    0.78    0.70
  WS02004401WS02004402 CONDUIT    556.75     0  03:45      0.76    0.67    0.88
  WS02004413WS02003067 CONDUIT    549.19     0  03:48      1.12    0.24    0.60
  WS02004412WS02004413 CONDUIT    549.32     0  03:48      0.83    0.37    0.78
  WS02004410WS02004411 CONDUIT    551.09     0  03:47      0.95    0.75    0.69
  WS02004409WS02004410 CONDUIT    553.05     0  03:47      0.98    0.72    0.68
  WS02004407WS02004409 CONDUIT    556.05     0  03:46      1.50    0.20    0.49
  WS02004406WS02004407 CONDUIT    556.20     0  03:46      1.06    0.25    0.63
  WS02004405WS02004406 CONDUIT    556.28     0  03:46      0.72    1.10    0.97
  WS02004404WS02004405 CONDUIT    556.29     0  03:46      0.71    5.45    0.97
  WS02004403WS02004404 CONDUIT    556.22     0  03:46      0.73    0.40    0.94
  WS02004402WS02004403 CONDUIT    556.34     0  03:46      0.75    0.80    0.90
  WS02004139WS02001211 CONDUIT    381.83     0  07:38      0.90    0.48    0.60
  WS02004138WS02004139 CONDUIT    396.19     0  00:00      3.65    0.08    0.44
  WS02003067WS02003066 CONDUIT    549.36     0  03:48      1.22    0.18    0.42
  WS02001213WS02003059 CONDUIT    395.14     0  07:39      0.88    0.65    0.78
  WS02001212WS02001213 CONDUIT    392.46     0  07:38      1.32    0.61    0.47
  WS02001211WS02001212 CONDUIT    390.89     0  07:38      0.78    0.30    0.65
  WS02003072WS02003073 CONDUIT    945.20     0  03:52      1.73    2.04    0.49
  WS02003069WS02003072 CONDUIT    945.17     0  03:51      1.62    0.46    0.51
  WS02003060WS02003069 CONDUIT    944.91     0  03:51      1.87    0.37    0.46
  WS02003059WS02003060 CONDUIT    398.79     0  07:39      0.95    0.26    0.66
  HS02004901HS02004770 CONDUIT     15.97     0  02:09      0.06    0.06    0.38
  HS02004876HS02004881 CONDUIT     55.54     0  02:11      0.81    0.59    0.10
  HS02004870HS02004876 CONDUIT     44.27     0  02:12      0.55    0.03    0.11
  HS02004842HS02004848 CONDUIT      7.53     0  02:22      0.04    0.00    0.29
  HS02004837HS02004842 CONDUIT      7.86     0  02:23      0.42    0.00    0.30
  HS02004830HS02004837 CONDUIT     32.64     0  02:11      0.51    0.03    0.09
  HS02004824HS02004830 CONDUIT     32.78     0  02:12      0.54    0.04    0.09
  HS02004817HS02004824 CONDUIT     55.99     0  02:14      0.18    0.03    0.44
  HS02004770HS02004777 CONDUIT     81.57     0  02:09      0.30    0.15    0.39
  HS02004799HS02004480 CONDUIT    201.18     0  02:10      0.74    0.25    0.39
  HS02004792HS02004799 CONDUIT    183.77     0  02:10      0.84    0.11    0.31
  HS02004788HS02004792 CONDUIT    106.76     0  02:11      0.97    0.07    0.16
  HS02004785HS02004788 CONDUIT     81.09     0  02:10      0.63    0.61    0.18
  HS02004777HS02004785 CONDUIT     81.04     0  02:10      0.36    0.10    0.32
  HS02004480HS02004478 CONDUIT    237.77     0  02:11      1.15    1.00    0.30
  HS02004479HS02004480 CONDUIT     37.40     0  02:12      0.16    0.04    0.38
  HS02004862HS02004870 CONDUIT     32.71     0  02:13      0.56    0.04    0.08
  HS02004848HS02004852 CONDUIT     13.99     0  02:12      0.38    0.02    0.05
  HS02004856HS02004862 CONDUIT     22.54     0  02:12      0.42    0.02    0.08
  HS02004852HS02004856 CONDUIT     13.93     0  02:13      0.18    0.02    0.11
  HS02004802HS02004478 CONDUIT     79.08     0  02:15      0.37    0.07    0.31
  HS02004478WS02006287 CONDUIT    314.33     0  02:12      1.57    0.09    0.22
  HS02004817HS02004807 CONDUIT     57.49     0  02:16      0.14    0.03    0.58
  HS02004807HS02004802 CONDUIT     78.40     0  02:14      0.31    0.15    0.36
  YS02001759YS02001757 CONDUIT    345.57     0  02:48      0.44    0.25    1.00
  YS02001762YS02001759 CONDUIT    198.73     0  02:48      0.25    0.23    1.00
  YS02001765YS02001762 CONDUIT    195.14     0  02:48      0.25    0.18    1.00
  YS02001770YS02001767 CONDUIT    188.44     0  02:48      0.30    0.75    1.00
  YS02001774YS02001770 CONDUIT     59.29     0  02:48      0.14    0.04    1.00
  YS02001779YS02001774 CONDUIT     58.81     0  02:48      0.08    0.03    1.00
  YS02001649YS02001757 CONDUIT    494.30     0  02:47      0.63    0.30    1.00
  YS02001767YS02001765 CONDUIT    191.44     0  02:48      0.27    0.24    1.00
  YS02006561YS02001783 CONDUIT    509.22     0  02:49      2.00    0.26    0.62
  YS02001783YS02001784 CONDUIT    506.98     0  02:49      1.44    0.70    0.94
  YS02001784YS02001785 CONDUIT    507.60     0  02:49      1.55    1.18    0.98
  YS02001788YS02001790 CONDUIT    529.29     0  03:26      2.11    0.39    1.00
  YS02001790YS02001791 CONDUIT    579.84     0  03:27      2.47    0.63    1.00
  YS02001791YS02001793 CONDUIT    615.99     0  03:27      5.08    0.26    1.00
  YS02001910YS02001907 CONDUIT    166.28     0  02:55      0.49    0.09    0.87
  YS02001786YS02001788 CONDUIT    507.62     0  02:50      2.00    0.98    0.98
  YS02001915YS02001910 CONDUIT    164.25     0  02:54      0.45    0.08    0.66
  YS02001918YS02001915 CONDUIT     56.78     0  02:50      0.44    0.03    0.38
  YS02001923YS02001920 CONDUIT     50.01     0  03:01      0.53    0.02    0.19
  YS02001926YS02001923 CONDUIT     49.97     0  03:01      0.59    0.07    0.16
  YS02001929YS02001926 CONDUIT     49.96     0  03:01      0.63    0.02    0.16
  YS02001920YS02001918 CONDUIT     54.03     0  02:59      0.54    0.05    0.24
  YS02001629YS02163301 CONDUIT    130.61     0  02:48      0.17    0.16    1.00
  YS02001619YS02001622 CONDUIT    138.85     0  02:58      0.72    0.20    1.00
  YS02001622YS02001625 CONDUIT    185.80     0  02:52      0.31    0.10    1.00
  YS02001625YS02001629 CONDUIT    185.71     0  02:54      0.30    0.09    1.00
  YS02163301YS02001633 CONDUIT    129.25     0  02:48      0.16    0.12    1.00
  YS02163601YS02164001 CONDUIT    238.68     0  02:48      0.30    0.21    1.00
  YS02164001YS02001641 CONDUIT    234.39     0  02:48      0.30    0.32    1.00
  YS02001641YS02001644 CONDUIT    232.44     0  02:48      0.30    0.75    1.00
  YS02001647YS02001649 CONDUIT    339.86     0  02:48      0.43    0.18    1.00
  YS02006553YS02006556 CONDUIT    355.98     0  02:49      0.46    0.30    0.95
  YS02006556YS02006558 CONDUIT    362.38     0  02:49      0.47    0.29    0.98
  YSB6556YSB1171       CONDUIT     20.31     0  02:12      0.08    0.02    0.65
  YS02001907YS02006553 CONDUIT    352.40     0  02:49      0.39    0.41    1.00
  YS02006558YS02006561 CONDUIT    556.08     0  02:38      2.87    1.23    0.66
  YS02001633YS02163601 CONDUIT    240.03     0  02:48      0.31    0.25    1.00
  YS02001644YS02001647 CONDUIT    341.70     0  02:49      0.44    0.20    1.00
  YS02001745YS02001748 CONDUIT    238.88     0  02:48      1.56    0.09    0.92
  YS02001748YS02001751 CONDUIT    411.34     0  02:46      1.21    0.21    1.00
  YS02001751YS02001754 CONDUIT    180.74     0  02:48      0.96    0.09    1.00
  YS02001754YS02001757 CONDUIT    183.85     0  02:48      0.33    0.07    1.00
  YS02001882YS02001884 CONDUIT      5.38     0  02:05      0.08    0.01    0.60
  YS02001884YS02001887 CONDUIT     16.05     0  02:03      0.05    0.02    0.69
  YS02001890YS02001895 CONDUIT    194.98     0  02:30      0.36    0.09    0.66
  YS02001895YS02001898 CONDUIT    192.71     0  02:28      0.49    0.33    0.52
  YS02001898YS02001901 CONDUIT    192.89     0  02:29      0.40    0.12    0.60
  YS02001901YS02001904 CONDUIT    194.10     0  02:29      0.37    0.30    0.65
  YS02001904YS02001907 CONDUIT    196.23     0  02:29      0.29    0.07    0.81
  YS02001887YS02001890 CONDUIT    193.39     0  02:28      0.31    0.33    0.75
  YS02001652YS02001649 CONDUIT    197.41     0  02:25      0.33    0.10    1.00
  YS02001655YS02001652 CONDUIT    192.54     0  02:47      1.00    0.09    1.00
  YS02001658YS02001655 CONDUIT    365.34     0  02:46      1.40    0.15    1.00
  YS02001661YS02001658 CONDUIT    368.35     0  03:06      1.63    0.14    1.00
  YS02001664YS02001661 CONDUIT    410.48     0  03:37      1.38    0.13    0.70
  YSB1154YSB6556       CONDUIT     19.99     0  02:11      0.19    0.04    0.54
  YSB1174YSB1171       CONDUIT     17.76     0  02:07      0.07    0.03    0.65
  YSB1171HS02004479    CONDUIT     37.07     0  02:12      0.54    0.02    0.51
  HS02004881HS02006253 CONDUIT     62.04     0  02:11      1.99    0.01    0.51
  YS02001793JiankangQianchi CONDUIT    762.97     0  03:02     15.45    0.06    1.00
  YS02001757CaochengTiaoxuchi CONDUIT    879.39     0  02:49      1.72    0.39    1.00
  WSF200WS02003060     CONDUIT    549.77     0  03:49      2.08    0.12    0.34
  1                    CONDUIT    947.16     0  03:53      3.28    0.33    0.40
  CC-Pump-1            PUMP       200.00     0  03:30              1.00
  CC-Pump-2            PUMP       200.00     0  05:40              1.00
  JK-Pump-1            PUMP       300.00     0  00:00              1.00
  JK-Pump-2            PUMP       683.00     0  00:00              1.00
  XR-Pump-1            PUMP        95.00     0  00:00              1.00
  XR-Pump-2            PUMP        95.00     0  00:00              1.00
  XR-Pump-3            PUMP        95.00     0  00:00              1.00
  XR-Pump-4            PUMP        95.00     0  00:00              1.00
  
  
  ***************************
  Flow Classification Summary
  ***************************
  
  -------------------------------------------------------------------------------------
                      Adjusted    ---------- Fraction of Time in Flow Class ---------- 
                       /Actual         Up    Down  Sub   Sup   Up    Down  Norm  Inlet 
  Conduit               Length    Dry  Dry   Dry   Crit  Crit  Crit  Crit  Ltd   Ctrl  
  -------------------------------------------------------------------------------------
  WS02003066WSF200        1.00   0.01  0.07  0.00  0.00  0.92  0.00  0.00  0.55  0.00
  WS02006287WS02006284    1.00   0.03  0.02  0.00  0.78  0.17  0.00  0.00  0.76  0.00
  WS02006284WS02006280    1.00   0.03  0.00  0.00  0.00  0.00  0.00  0.97  0.00  0.00
  WS02006280WS02006229    1.00   0.03  0.00  0.00  0.00  0.00  0.00  0.97  0.00  0.00
  WS02006229WS02006228    1.00   0.00  0.00  0.00  1.00  0.00  0.00  0.00  0.00  0.00
  WS02006256WS02006235    1.00   0.00  0.00  0.00  1.00  0.00  0.00  0.00  0.00  0.00
  WS02006253WS02006251    1.00   0.01  0.02  0.00  0.97  0.00  0.00  0.00  0.00  0.00
  WS02006252WS02006251    1.00   0.17  0.00  0.00  0.06  0.00  0.77  0.00  0.00  0.00
  WS02006251WS02006249    1.00   0.00  0.00  0.00  1.00  0.00  0.00  0.00  0.29  0.00
  WS02006249WS02006248    1.00   0.00  0.01  0.00  0.89  0.00  0.10  0.00  0.00  0.00
  WS02006248WS02006247    1.00   0.01  0.00  0.00  0.98  0.00  0.00  0.01  0.19  0.00
  WS02006247WS02006245    1.00   0.01  0.00  0.00  0.97  0.00  0.00  0.02  0.00  0.00
  WS02006245WS02006243    1.00   0.00  0.00  0.00  0.93  0.00  0.00  0.06  0.01  0.00
  WS02006243WS02006242    1.00   0.00  0.00  0.00  1.00  0.00  0.00  0.00  0.33  0.00
  WS02006242WS02006240    1.00   0.00  0.00  0.00  1.00  0.00  0.00  0.00  0.00  0.00
  WS02006240WS02006239    1.00   0.00  0.00  0.00  0.94  0.00  0.00  0.06  0.01  0.00
  WS02006239WS02006238    1.00   0.00  0.00  0.00  1.00  0.00  0.00  0.00  0.21  0.00
  WS02006238WS02006235    1.00   0.00  0.00  0.00  1.00  0.00  0.00  0.00  0.00  0.00
  WS02006235WS02006234    1.00   0.00  0.00  0.00  0.95  0.00  0.05  0.00  0.00  0.00
  WS02006234WS02006232    1.00   0.00  0.00  0.00  1.00  0.00  0.00  0.00  0.16  0.00
  WS02006232WS02006231    1.00   0.00  0.00  0.00  1.00  0.00  0.00  0.00  0.00  0.00
  WS02006231WS02006230    1.00   0.00  0.00  0.00  0.76  0.00  0.24  0.00  0.00  0.00
  WS02006230WS02006229    1.00   0.00  0.00  0.00  1.00  0.00  0.00  0.00  0.01  0.00
  WS02006228WS02006109    1.00   0.00  0.00  0.00  1.00  0.00  0.00  0.00  0.00  0.00
  WS02006116WS02004401    1.00   0.01  0.00  0.00  0.99  0.00  0.00  0.00  0.01  0.00
  WS02006115WS02006116    1.00   0.01  0.00  0.00  0.97  0.00  0.00  0.02  0.01  0.00
  WS02006113WS02006111    1.00   0.01  0.00  0.00  0.00  0.99  0.00  0.00  0.15  0.00
  WS02006112WS02006115    1.00   0.01  0.00  0.00  0.99  0.00  0.00  0.00  0.00  0.00
  WS02006111WS02006112    1.00   0.01  0.00  0.00  0.99  0.00  0.00  0.00  0.98  0.00
  WS02006110WS02006113    1.00   0.00  0.00  0.00  0.99  0.00  0.00  0.00  0.00  0.00
  WS02006109WS02006110    1.00   0.00  0.00  0.00  1.00  0.00  0.00  0.00  0.00  0.00
  WS02004411WS02004412    1.00   0.05  0.00  0.00  0.95  0.00  0.00  0.00  0.00  0.00
  WS02004401WS02004402    1.00   0.01  0.00  0.00  0.99  0.00  0.00  0.00  0.01  0.00
  WS02004413WS02003067    1.00   0.05  0.02  0.00  0.00  0.00  0.93  0.00  0.00  0.00
  WS02004412WS02004413    1.00   0.05  0.00  0.00  0.95  0.00  0.00  0.00  0.01  0.00
  WS02004410WS02004411    1.00   0.05  0.00  0.00  0.95  0.00  0.00  0.00  0.00  0.00
  WS02004409WS02004410    1.00   0.05  0.00  0.00  0.95  0.00  0.00  0.00  0.00  0.00
  WS02004407WS02004409    1.00   0.05  0.00  0.00  0.94  0.00  0.00  0.00  0.78  0.00
  WS02004406WS02004407    1.00   0.00  0.05  0.00  0.95  0.00  0.00  0.00  0.00  0.00
  WS02004405WS02004406    1.00   0.00  0.00  0.00  1.00  0.00  0.00  0.00  0.02  0.00
  WS02004404WS02004405    1.00   0.00  0.00  0.00  1.00  0.00  0.00  0.00  0.00  0.00
  WS02004403WS02004404    1.00   0.00  0.01  0.00  0.99  0.00  0.00  0.00  0.02  0.00
  WS02004402WS02004403    1.00   0.01  0.00  0.00  0.99  0.00  0.00  0.00  0.00  0.00
  WS02004139WS02001211    1.00   0.00  0.00  0.00  1.00  0.00  0.00  0.00  0.00  0.00
  WS02004138WS02004139    1.00   0.00  0.03  0.00  0.96  0.00  0.00  0.00  1.00  0.00
  WS02003067WS02003066    1.00   0.07  0.00  0.00  0.92  0.00  0.00  0.00  0.00  0.00
  WS02001213WS02003059    1.00   0.00  0.00  0.00  1.00  0.00  0.00  0.00  0.00  0.00
  WS02001212WS02001213    1.00   0.00  0.00  0.00  0.91  0.00  0.09  0.00  0.00  0.00
  WS02001211WS02001212    1.00   0.00  0.00  0.00  1.00  0.00  0.00  0.00  0.00  0.00
  WS02003072WS02003073    1.00   0.00  0.00  0.00  0.00  0.00  0.00  1.00  0.00  0.00
  WS02003069WS02003072    1.00   0.00  0.00  0.00  1.00  0.00  0.00  0.00  0.21  0.00
  WS02003060WS02003069    1.00   0.00  0.00  0.00  0.98  0.02  0.00  0.00  0.14  0.00
  WS02003059WS02003060    1.00   0.00  0.00  0.00  1.00  0.00  0.00  0.00  0.00  0.00
  HS02004901HS02004770    1.00   0.03  0.00  0.00  0.97  0.00  0.00  0.00  0.01  0.00
  HS02004876HS02004881    1.00   0.01  0.00  0.00  0.99  0.00  0.00  0.00  0.00  0.00
  HS02004870HS02004876    1.00   0.00  0.00  0.00  1.00  0.00  0.00  0.00  0.95  0.00
  HS02004842HS02004848    1.00   0.00  0.03  0.00  0.97  0.00  0.00  0.00  0.65  0.00
  HS02004837HS02004842    1.00   0.00  0.00  0.00  1.00  0.00  0.00  0.00  0.11  0.00
  HS02004830HS02004837    1.00   0.00  0.00  0.00  1.00  0.00  0.00  0.00  0.99  0.00
  HS02004824HS02004830    1.00   0.00  0.00  0.00  1.00  0.00  0.00  0.00  0.00  0.00
  HS02004817HS02004824    1.00   0.00  0.00  0.00  1.00  0.00  0.00  0.00  1.00  0.00
  HS02004770HS02004777    1.00   0.00  0.03  0.00  0.97  0.00  0.00  0.00  0.06  0.00
  HS02004799HS02004480    1.00   0.00  0.01  0.00  0.95  0.00  0.04  0.00  0.00  0.00
  HS02004792HS02004799    1.00   0.00  0.00  0.00  1.00  0.00  0.00  0.00  0.98  0.00
  HS02004788HS02004792    1.00   0.00  0.00  0.00  1.00  0.00  0.00  0.00  0.98  0.00
  HS02004785HS02004788    1.00   0.00  0.00  0.00  1.00  0.00  0.00  0.00  0.00  0.00
  HS02004777HS02004785    1.00   0.00  0.00  0.00  1.00  0.00  0.00  0.00  0.18  0.00
  HS02004480HS02004478    1.00   0.04  0.00  0.00  0.84  0.00  0.00  0.12  0.00  0.00
  HS02004479HS02004480    1.00   0.01  0.00  0.00  0.99  0.00  0.00  0.00  0.15  0.00
  HS02004862HS02004870    1.00   0.00  0.00  0.00  1.00  0.00  0.00  0.00  0.05  0.00
  HS02004848HS02004852    1.00   0.03  0.00  0.00  0.97  0.00  0.00  0.00  0.72  0.00
  HS02004856HS02004862    1.00   0.00  0.06  0.00  0.94  0.00  0.00  0.00  0.77  0.00
  HS02004852HS02004856    1.00   0.03  0.01  0.00  0.96  0.00  0.00  0.00  0.83  0.00
  HS02004802HS02004478    1.00   0.03  0.01  0.00  0.96  0.00  0.00  0.00  0.01  0.00
  HS02004478WS02006287    1.00   0.05  0.00  0.00  0.90  0.06  0.00  0.00  0.74  0.00
  HS02004817HS02004807    1.00   0.00  0.03  0.00  0.97  0.00  0.00  0.00  0.00  0.00
  HS02004807HS02004802    1.00   0.03  0.00  0.00  0.96  0.00  0.00  0.00  0.01  0.00
  YS02001759YS02001757    1.00   0.00  0.00  0.00  1.00  0.00  0.00  0.00  0.18  0.00
  YS02001762YS02001759    1.00   0.00  0.00  0.00  1.00  0.00  0.00  0.00  0.04  0.00
  YS02001765YS02001762    1.00   0.00  0.00  0.00  1.00  0.00  0.00  0.00  0.20  0.00
  YS02001770YS02001767    1.00   0.00  0.00  0.00  1.00  0.00  0.00  0.00  0.00  0.00
  YS02001774YS02001770    1.00   0.00  0.04  0.00  0.96  0.00  0.00  0.00  0.05  0.00
  YS02001779YS02001774    1.00   0.00  0.00  0.00  1.00  0.00  0.00  0.00  0.24  0.00
  YS02001649YS02001757    1.00   0.00  0.00  0.00  1.00  0.00  0.00  0.00  0.18  0.00
  YS02001767YS02001765    1.00   0.00  0.00  0.00  1.00  0.00  0.00  0.00  0.01  0.00
  YS02006561YS02001783    1.00   0.06  0.00  0.00  0.03  0.91  0.00  0.00  0.64  0.00
  YS02001783YS02001784    1.00   0.00  0.06  0.00  0.94  0.00  0.00  0.00  0.00  0.00
  YS02001784YS02001785    1.00   0.00  0.00  0.00  1.00  0.00  0.00  0.00  0.23  0.00
  YS02001788YS02001790    1.00   0.00  0.00  0.00  0.16  0.84  0.00  0.00  0.66  0.00
  YS02001790YS02001791    1.00   0.00  0.00  0.00  0.12  0.88  0.00  0.00  0.55  0.00
  YS02001791YS02001793    1.00   0.00  0.00  0.00  0.20  0.80  0.00  0.00  0.06  0.00
  YS02001910YS02001907    1.00   0.00  0.00  0.00  0.99  0.00  0.00  0.01  0.13  0.00
  YS02001786YS02001788    1.00   0.00  0.00  0.00  0.14  0.86  0.00  0.00  0.00  0.00
  YS02001915YS02001910    1.00   0.00  0.00  0.00  1.00  0.00  0.00  0.00  0.22  0.00
  YS02001918YS02001915    1.00   0.00  0.00  0.00  0.99  0.00  0.00  0.00  0.68  0.00
  YS02001923YS02001920    1.00   0.00  0.00  0.00  1.00  0.00  0.00  0.00  1.00  0.00
  YS02001926YS02001923    1.00   0.00  0.02  0.00  0.00  0.00  0.98  0.00  0.00  0.00
  YS02001929YS02001926    1.00   0.00  0.03  0.00  0.97  0.00  0.00  0.00  0.86  0.00
  YS02001920YS02001918    1.00   0.00  0.00  0.00  1.00  0.00  0.00  0.00  0.00  0.00
  YS02001629YS02163301    1.00   0.05  0.00  0.00  0.95  0.00  0.00  0.00  0.00  0.00
  YS02001619YS02001622    1.00   0.03  0.00  0.00  0.97  0.00  0.00  0.00  0.00  0.00
  YS02001622YS02001625    1.00   0.03  0.00  0.00  0.97  0.00  0.00  0.00  0.11  0.00
  YS02001625YS02001629    1.00   0.03  0.03  0.00  0.92  0.00  0.01  0.00  0.00  0.00
  YS02163301YS02001633    1.00   0.00  0.05  0.00  0.95  0.00  0.00  0.00  0.00  0.00
  YS02163601YS02164001    1.00   0.00  0.02  0.00  0.98  0.00  0.00  0.00  0.00  0.00
  YS02164001YS02001641    1.00   0.00  0.02  0.00  0.98  0.00  0.00  0.00  0.07  0.00
  YS02001641YS02001644    1.00   0.00  0.00  0.00  1.00  0.00  0.00  0.00  0.00  0.00
  YS02001647YS02001649    1.00   0.00  0.06  0.00  0.94  0.00  0.00  0.00  0.01  0.00
  YS02006553YS02006556    1.00   0.00  0.00  0.00  1.00  0.00  0.00  0.00  0.03  0.00
  YS02006556YS02006558    1.00   0.00  0.00  0.00  1.00  0.00  0.00  0.00  0.00  0.00
  YSB6556YSB1171          1.00   0.01  0.02  0.00  0.97  0.00  0.00  0.00  0.00  0.00
  YS02001907YS02006553    1.00   0.00  0.01  0.00  0.99  0.00  0.00  0.00  0.00  0.00
  YS02006558YS02006561    1.00   0.06  0.00  0.00  0.00  0.94  0.00  0.00  0.63  0.00
  YS02001633YS02163601    1.00   0.00  0.00  0.00  1.00  0.00  0.00  0.00  0.19  0.00
  YS02001644YS02001647    1.00   0.00  0.06  0.00  0.94  0.00  0.00  0.00  0.00  0.00
  YS02001745YS02001748    1.00   0.00  0.00  0.00  0.91  0.00  0.00  0.09  0.05  0.00
  YS02001748YS02001751    1.00   0.00  0.00  0.00  0.97  0.03  0.00  0.00  0.20  0.00
  YS02001751YS02001754    1.00   0.00  0.00  0.00  0.93  0.00  0.00  0.07  0.01  0.00
  YS02001754YS02001757    1.00   0.00  0.00  0.00  1.00  0.00  0.00  0.00  0.24  0.00
  YS02001882YS02001884    1.00   0.05  0.00  0.00  0.95  0.00  0.00  0.00  0.00  0.00
  YS02001884YS02001887    1.00   0.02  0.01  0.00  0.97  0.00  0.00  0.00  0.00  0.00
  YS02001890YS02001895    1.00   0.00  0.05  0.00  0.95  0.00  0.00  0.00  0.00  0.00
  YS02001895YS02001898    1.00   0.05  0.00  0.00  0.94  0.00  0.01  0.00  0.00  0.00
  YS02001898YS02001901    1.00   0.05  0.00  0.00  0.95  0.00  0.00  0.00  0.02  0.00
  YS02001901YS02001904    1.00   0.05  0.00  0.00  0.95  0.00  0.00  0.00  0.00  0.00
  YS02001904YS02001907    1.00   0.00  0.05  0.00  0.95  0.00  0.00  0.00  0.00  0.00
  YS02001887YS02001890    1.00   0.00  0.00  0.00  0.99  0.00  0.01  0.00  0.00  0.00
  YS02001652YS02001649    1.00   0.00  0.00  0.00  1.00  0.00  0.00  0.00  0.24  0.00
  YS02001655YS02001652    1.00   0.00  0.00  0.00  0.93  0.00  0.00  0.07  0.01  0.00
  YS02001658YS02001655    1.00   0.00  0.04  0.00  0.92  0.03  0.00  0.00  0.07  0.00
  YS02001661YS02001658    1.00   0.04  0.00  0.00  0.91  0.05  0.00  0.00  0.05  0.00
  YS02001664YS02001661    1.00   0.03  0.00  0.00  0.92  0.05  0.00  0.00  0.28  0.00
  YSB1154YSB6556          1.00   0.03  0.00  0.00  0.97  0.00  0.00  0.00  0.02  0.00
  YSB1174YSB1171          1.00   0.01  0.01  0.00  0.98  0.00  0.00  0.00  0.00  0.00
  YSB1171HS02004479       1.00   0.01  0.00  0.00  0.99  0.00  0.00  0.00  0.13  0.00
  HS02004881HS02006253    1.00   0.01  0.00  0.00  0.79  0.00  0.00  0.19  0.54  0.00
  YS02001793JiankangQianchi    1.00   0.00  0.00  0.00  0.58  0.42  0.00  0.00  0.49  0.00
  YS02001757CaochengTiaoxuchi    1.00   0.00  0.08  0.00  0.92  0.00  0.00  0.00  0.00  0.00
  WSF200WS02003060        1.00   0.00  0.01  0.00  0.81  0.17  0.00  0.00  0.32  0.00
  1                       1.00   0.00  0.00  0.00  0.00  1.00  0.00  0.00  0.58  0.00
  
  
  *************************
  Conduit Surcharge Summary
  *************************
  
  ----------------------------------------------------------------------------
                                                           Hours        Hours 
                         --------- Hours Full --------   Above Full   Capacity
  Conduit                Both Ends  Upstream  Dnstream   Normal Flow   Limited
  ----------------------------------------------------------------------------
  WS02006229WS02006228        3.62      3.74      3.62      4.58         3.62
  WS02006256WS02006235        5.25      5.26      6.21      3.57         0.01
  WS02006253WS02006251        1.58      1.58      1.66      0.01         0.01
  WS02006252WS02006251        1.37      1.37      2.39      2.10         0.01
  WS02006251WS02006249        1.60      1.60      1.66      1.17         0.99
  WS02006249WS02006248        1.56      1.56      1.66      4.11         0.01
  WS02006248WS02006247        1.63      1.63      1.89      0.01         0.01
  WS02006247WS02006245        1.83      1.97      1.83      4.22         1.82
  WS02006245WS02006243        1.90      1.91      2.12      1.04         0.88
  WS02006243WS02006242        2.25      2.25      3.08      0.01         0.01
  WS02006242WS02006240        2.81      2.81      3.25      2.42         0.01
  WS02006240WS02006239        2.82      2.86      2.85      1.52         1.14
  WS02006239WS02006238        3.12      3.20      3.17      1.61         1.32
  WS02006238WS02006235        3.10      3.10      3.30      0.01         0.01
  WS02006235WS02006234        2.40      2.40      3.04      5.10         0.01
  WS02006234WS02006232        2.78      2.78      3.31      0.81         0.76
  WS02006232WS02006231        1.08      1.08      3.31      0.96         0.01
  WS02006231WS02006230        0.39      0.39      1.16      5.23         0.01
  WS02006230WS02006229        4.20      4.40      4.20      5.50         4.20
  WS02006228WS02006109        3.68      3.96      3.68      5.03         3.68
  WS02006112WS02006115        0.01      0.01      1.11      0.01         0.01
  WS02006111WS02006112        0.01      0.01      4.70      0.01         0.01
  WS02006110WS02006113        0.01      0.01      3.87      0.01         0.01
  WS02006109WS02006110        0.81      0.81      3.96      0.83         0.01
  WS02004405WS02004406        0.01      0.01      0.01      0.94         0.01
  WS02004404WS02004405        0.01      0.01      0.01      5.73         0.01
  WS02003072WS02003073        0.01      0.01      0.01      4.85         0.01
  HS02004480HS02004478        0.01      0.01      0.01      0.02         0.01
  YS02001759YS02001757        5.54      5.54      5.58      0.01         0.01
  YS02001762YS02001759        5.52      5.52      5.54      0.01         0.01
  YS02001765YS02001762        5.49      5.49      5.52      0.01         0.01
  YS02001770YS02001767        5.47      5.48      5.47      0.01         0.69
  YS02001774YS02001770        5.45      5.45      5.51      0.01         0.01
  YS02001779YS02001774        5.09      5.09      5.51      0.01         0.01
  YS02001649YS02001757        5.52      5.52      5.58      0.01         0.01
  YS02001767YS02001765        5.47      5.47      5.49      0.01         0.01
  YS02001784YS02001785        0.01      0.01      0.01      0.85         0.01
  YS02001788YS02001790        0.01      0.01      0.37      0.01         0.01
  YS02001790YS02001791        0.37      0.37      0.52      0.01         0.01
  YS02001791YS02001793        0.52      0.52      0.94      0.01         0.01
  YS02001786YS02001788        0.01      0.01      0.01      0.01         0.01
  YS02001629YS02163301        5.46      5.46      5.47      0.01         0.01
  YS02001619YS02001622        4.77      4.77      4.82      0.01         0.01
  YS02001622YS02001625        4.82      4.82      5.41      0.01         0.01
  YS02001625YS02001629        4.78      4.78      5.41      0.01         0.01
  YS02163301YS02001633        5.47      5.47      5.49      0.01         0.01
  YS02163601YS02164001        5.49      5.49      5.52      0.01         0.01
  YS02164001YS02001641        5.49      5.49      5.50      0.01         0.01
  YS02001641YS02001644        5.50      5.50      5.50      0.01         0.88
  YS02001647YS02001649        5.37      5.37      5.52      0.01         0.01
  YS02006556YS02006558        0.01      0.01      0.01      0.01         0.01
  YS02001907YS02006553        0.92      0.92      1.12      0.01         0.01
  YS02006558YS02006561        0.01      0.01      0.01      0.64         0.01
  YS02001633YS02163601        5.49      5.49      5.52      0.01         0.01
  YS02001644YS02001647        5.37      5.37      5.50      0.01         0.01
  YS02001745YS02001748        0.01      0.01      3.70      0.01         0.01
  YS02001748YS02001751        4.06      4.06      4.81      0.01         0.01
  YS02001751YS02001754        4.81      4.81      5.20      0.01         0.01
  YS02001754YS02001757        5.35      5.35      5.58      0.01         0.01
  YS02001652YS02001649        5.39      5.39      5.52      0.01         0.01
  YS02001655YS02001652        4.86      4.86      5.33      0.01         0.01
  YS02001658YS02001655        3.77      3.77      4.86      0.01         0.01
  YS02001661YS02001658        0.02      0.02      3.77      0.01         0.01
  YS02001664YS02001661        0.01      0.01      0.31      0.01         0.01
  HS02004881HS02006253        0.01      0.01      0.69      0.01         0.01
  YS02001793JiankangQianchi        0.83      0.83      2.96      0.01         0.01
  YS02001757CaochengTiaoxuchi        4.58      4.58      5.58      0.01         0.01
  
  
  ***************
  Pumping Summary
  ***************
  
  ---------------------------------------------------------------------------------------------------------
                                                  Min       Avg       Max     Total     Power    % Time Off
                        Percent   Number of      Flow      Flow      Flow    Volume     Usage    Pump Curve
  Pump                 Utilized   Start-Ups       LPS       LPS       LPS  10^6 ltr     Kw-hr    Low   High
  ---------------------------------------------------------------------------------------------------------
  CC-Pump-1               57.44           1      0.00    191.48    200.00     3.060      3.80    0.0    0.0
  CC-Pump-2               38.29           6      0.00     98.70    200.00     1.320      2.02    0.0    0.0
  JK-Pump-1               53.19           5      0.00    186.16    300.00     2.572     45.96    0.0    0.0
  JK-Pump-2               40.42           5      0.00    238.65    683.00     2.660     48.73    0.0   96.1
  XR-Pump-1               89.36           3      0.00     91.06     95.00     2.223     40.86    0.0    0.0
  XR-Pump-2               89.36           3      0.00     90.53     95.00     2.166     39.60    0.0    0.0
  XR-Pump-3               85.10           5      0.00     90.47     95.00     2.052     37.09    0.0    0.0
  XR-Pump-4               85.10           5      0.00     90.47     95.00     2.052     37.09    0.0    0.0
  
  
  ***************************
  Link Pollutant Load Summary
  ***************************
  
  ------------------------------------------------------------------------------------------
                                 COD            SS            TN            TP         NH4-N
  Link                            kg            kg            kg            kg            kg
  ------------------------------------------------------------------------------------------
  WS02003066WSF200           532.813       924.199        16.963         1.602         9.275
  WS02006287WS02006284       144.427       256.599         6.963         0.774         4.083
  WS02006284WS02006280       144.851       257.284         7.003         0.778         4.108
  WS02006280WS02006229       144.837       257.256         7.003         0.778         4.108
  WS02006229WS02006228       540.370       936.700        16.699         1.552         9.069
  WS02006256WS02006235        97.088       165.323         2.660         0.230         1.412
  WS02006253WS02006251        26.360        48.538         0.721         0.062         0.378
  WS02006252WS02006251       293.302       501.456         6.823         0.520         3.426
  WS02006251WS02006249       312.959       538.592         7.399         0.572         3.734
  WS02006249WS02006248       305.685       526.214         7.223         0.558         3.645
  WS02006248WS02006247       305.557       526.033         7.222         0.558         3.644
  WS02006247WS02006245       305.158       525.367         7.212         0.557         3.639
  WS02006245WS02006243       304.767       524.779         7.198         0.556         3.632
  WS02006243WS02006242       304.720       524.788         7.199         0.556         3.633
  WS02006242WS02006240       304.948       525.314         7.201         0.556         3.633
  WS02006240WS02006239       305.854       527.062         7.216         0.557         3.640
  WS02006239WS02006238       307.387       529.764         7.262         0.562         3.666
  WS02006238WS02006235       307.931       530.560         7.283         0.564         3.678
  WS02006235WS02006234       398.901       685.120         9.786         0.781         5.008
  WS02006234WS02006232       398.461       684.375         9.781         0.781         5.007
  WS02006232WS02006231       397.889       683.423         9.765         0.779         4.998
  WS02006231WS02006230       397.519       682.816         9.762         0.779         4.997
  WS02006230WS02006229       397.805       683.472         9.782         0.782         5.009
  WS02006228WS02006109       539.484       935.238        16.673         1.549         9.056
  WS02006116WS02004401       544.975       944.592        17.309         1.632         9.459
  WS02006115WS02006116       546.260       946.726        17.351         1.636         9.482
  WS02006113WS02006111       545.309       944.407        17.384         1.641         9.506
  WS02006112WS02006115       547.564       948.914        17.406         1.642         9.513
  WS02006111WS02006112       544.816       943.572        17.372         1.640         9.500
  WS02006110WS02006113       545.905       945.408        17.410         1.644         9.521
  WS02006109WS02006110       547.145       947.483        17.466         1.650         9.553
  WS02004411WS02004412       536.019       929.592        17.089         1.615         9.347
  WS02004401WS02004402       543.614       942.315        17.256         1.627         9.429
  WS02004413WS02003067       533.403       925.176        16.977         1.603         9.282
  WS02004412WS02004413       534.880       927.678        17.053         1.612         9.327
  WS02004410WS02004411       536.931       931.116        17.116         1.618         9.361
  WS02004409WS02004410       537.876       932.699        17.148         1.621         9.379
  WS02004407WS02004409       538.632       933.953        17.166         1.622         9.388
  WS02004406WS02004407       538.817       934.237        17.163         1.621         9.385
  WS02004405WS02004406       540.542       937.100        17.247         1.630         9.434
  WS02004404WS02004405       541.584       938.848        17.248         1.629         9.431
  WS02004403WS02004404       541.235       938.344        17.169         1.618         9.380
  WS02004402WS02004403       542.375       940.253        17.214         1.623         9.406
  WS02004139WS02001211      1369.492      2202.830       125.887        15.631        78.367
  WS02004138WS02004139      1376.080      2213.438       126.481        15.704        78.736
  WS02003067WS02003066       532.985       924.492        16.970         1.603         9.279
  WS02001213WS02003059      1400.062      2251.661       128.856        16.003        80.225
  WS02001212WS02001213      1410.240      2267.960       129.835        16.125        80.836
  WS02001211WS02001212      1412.622      2271.782       130.059        16.153        80.976
  WS02003072WS02003073      2028.661      3328.775       155.265        18.790        95.415
  WS02003069WS02003072      2032.812      3335.523       155.602        18.831        95.623
  WS02003060WS02003069      2036.101      3340.868       155.855        18.862        95.778
  WS02003059WS02003060      1397.040      2246.903       128.490        15.956        79.993
  HS02004901HS02004770         4.322         8.070         0.082         0.006         0.038
  HS02004876HS02004881        16.394        30.954         0.427         0.035         0.220
  HS02004870HS02004876        12.501        23.480         0.362         0.031         0.190
  HS02004842HS02004848         2.249         4.060         0.049         0.003         0.022
  HS02004837HS02004842         6.863        11.399         0.516         0.062         0.316
  HS02004830HS02004837        52.573        86.959         4.307         0.528         2.665
  HS02004824HS02004830        53.324        88.161         4.379         0.537         2.710
  HS02004817HS02004824        62.359       105.158         4.592         0.552         2.817
  HS02004770HS02004777        16.464        30.979         0.348         0.023         0.159
  HS02004799HS02004480        63.137       113.696         2.341         0.239         1.306
  HS02004792HS02004799        58.034       103.534         2.295         0.240         1.293
  HS02004788HS02004792        36.151        64.196         1.731         0.189         1.003
  HS02004785HS02004788        17.961        33.389         0.499         0.042         0.254
  HS02004777HS02004785        17.432        32.531         0.452         0.036         0.225
  HS02004480HS02004478        77.758       141.917         2.544         0.251         1.394
  HS02004479HS02004480        18.991        35.182         0.619         0.064         0.348
  HS02004862HS02004870         9.305        17.106         0.298         0.027         0.160
  HS02004848HS02004852         3.009         5.508         0.064         0.004         0.029
  HS02004856HS02004862         5.648        10.715         0.115         0.007         0.054
  HS02004852HS02004856         3.006         5.501         0.064         0.004         0.029
  HS02004802HS02004478        66.963       115.166         4.444         0.525         2.705
  HS02004478WS02006287       144.603       256.891         6.978         0.775         4.092
  HS02004817HS02004807        60.998       102.980         4.463         0.536         2.737
  HS02004807HS02004802        67.673       116.297         4.514         0.534         2.748
  YS02001759YS02001757       169.949       293.005         3.708         0.260         1.839
  YS02001762YS02001759        89.584       155.601         2.142         0.156         1.085
  YS02001765YS02001762        88.841       154.208         2.151         0.158         1.092
  YS02001770YS02001767        86.229       149.932         1.848         0.118         0.900
  YS02001774YS02001770         5.672         9.834         0.146         0.011         0.075
  YS02001779YS02001774         4.143         6.979         0.200         0.021         0.117
  YS02001649YS02001757       224.596       375.175         5.145         0.399         2.546
  YS02001767YS02001765        88.728       153.939         2.162         0.159         1.100
  YS02006561YS02001783       348.795       597.053         8.840         0.729         4.604
  YS02001783YS02001784       348.715       596.936         8.837         0.729         4.602
  YS02001784YS02001785       356.098       608.773         9.551         0.818         5.049
  YS02001788YS02001790       356.781       609.894         9.625         0.828         5.095
  YS02001790YS02001791       357.813       611.568         9.725         0.840         5.158
  YS02001791YS02001793       357.672       611.316         9.719         0.840         5.155
  YS02001910YS02001907       118.253       198.504         4.120         0.381         2.277
  YS02001786YS02001788       356.333       609.165         9.579         0.822         5.067
  YS02001915YS02001910       118.161       198.314         4.072         0.374         2.245
  YS02001918YS02001915        59.600        95.824         2.778         0.302         1.626
  YS02001923YS02001920        39.618        63.872         0.834         0.059         0.410
  YS02001926YS02001923        39.259        63.295         0.795         0.054         0.386
  YS02001929YS02001926        38.999        62.869         0.764         0.050         0.366
  YS02001920YS02001918        59.545        95.761         2.752         0.298         1.609
  YS02001629YS02163301        44.995        75.324         0.988         0.062         0.458
  YS02001619YS02001622        47.712        79.501         1.052         0.066         0.486
  YS02001622YS02001625        46.744        78.037         1.028         0.064         0.475
  YS02001625YS02001629        45.576        76.291         1.000         0.063         0.463
  YS02163301YS02001633        45.737        76.620         1.000         0.063         0.464
  YS02163601YS02164001       125.067       207.920         2.663         0.188         1.282
  YS02164001YS02001641       124.885       207.625         2.648         0.186         1.273
  YS02001641YS02001644       125.751       209.087         2.655         0.186         1.275
  YS02001647YS02001649       174.698       290.288         3.547         0.250         1.696
  YS02006553YS02006556       252.633       430.914         6.748         0.581         3.577
  YS02006556YS02006558       252.597       430.846         6.713         0.576         3.553
  YSB6556YSB1171              10.101        18.874         0.259         0.024         0.139
  YS02001907YS02006553       252.636       430.939         6.749         0.581         3.578
  YS02006558YS02006561       348.761       596.979         8.838         0.729         4.603
  YS02001633YS02163601       125.664       208.818         2.644         0.184         1.266
  YS02001644YS02001647       176.096       292.485         3.576         0.252         1.710
  YS02001745YS02001748        66.813       114.304         1.433         0.085         0.689
  YS02001748YS02001751        74.302       126.529         2.118         0.170         1.116
  YS02001751YS02001754        70.809       120.442         2.062         0.169         1.092
  YS02001754YS02001757        71.703       121.857         2.225         0.191         1.198
  YS02001882YS02001884         0.911         1.490         0.024         0.002         0.012
  YS02001884YS02001887         3.285         5.567         0.077         0.007         0.040
  YS02001890YS02001895       135.442       233.962         2.646         0.201         1.308
  YS02001895YS02001898       135.298       233.756         2.640         0.200         1.304
  YS02001898YS02001901       135.169       233.571         2.637         0.200         1.303
  YS02001901YS02001904       135.219       233.684         2.658         0.203         1.316
  YS02001904YS02001907       135.993       234.962         2.754         0.215         1.377
  YS02001887YS02001890       136.309       235.303         2.710         0.209         1.347
  YS02001652YS02001649        53.009        89.867         1.653         0.152         0.873
  YS02001655YS02001652        53.609        90.828         1.670         0.154         0.882
  YS02001658YS02001655        51.967        88.504         1.315         0.106         0.651
  YS02001661YS02001658        52.611        89.902         1.104         0.075         0.506
  YS02001664YS02001661        64.200       108.257         1.368         0.093         0.625
  YSB1154YSB6556               9.586        18.053         0.196         0.016         0.100
  YSB1174YSB1171               6.984        13.239         0.179         0.017         0.096
  YSB1171HS02004479           18.886        35.022         0.609         0.062         0.342
  HS02004881HS02006253        18.461        35.031         0.456         0.036         0.232
  YS02001793JiankangQianchi       358.651       612.902         9.768         0.845         5.183
  YS02001757CaochengTiaoxuchi       460.942       782.504        10.759         0.815         5.395
  WSF200WS02003060           532.864       924.285        16.983         1.605         9.289
  1                         2030.364      3331.473       155.510        18.822        95.572
  CC-Pump-1                  205.421       351.314         4.780         0.365         2.401
  CC-Pump-2                   87.905       150.182         2.043         0.155         1.025
  JK-Pump-1                  105.768       179.576         2.870         0.246         1.520
  JK-Pump-2                  119.285       205.691         3.185         0.274         1.685
  XR-Pump-1                  368.819       593.045        33.997         4.223        21.169
  XR-Pump-2                  355.160       571.191        32.686         4.059        20.350
  XR-Pump-3                  328.281       528.184        30.105         3.737        18.737
  XR-Pump-4                  328.281       528.184        30.105         3.737        18.737
  

  Analysis begun on:  Sun Jul 11 14:22:11 2021
  Analysis ended on:  Sun Jul 11 14:22:14 2021
  Total elapsed time: 00:00:03