
  EPA STORM WATER MANAGEMENT MODEL - VERSION 5.1 (Build 5.3.0.dev0)
  --------------------------------------------------------------

  WARNING 04: minimum elevation drop used for Conduit WS02004404WS02004405
  WARNING 03: negative offset ignored for Link YS02001904YS02001907
  
  *********************************************************
  NOTE: The summary statistics displayed in this report are
  based on results found at every computational time step,  
  not just on results from each reporting time step.
  *********************************************************
  
  ****************
  Analysis Options
  ****************
  Flow Units ............... LPS
  Process Models:
    Rainfall/Runoff ........ YES
    RDII ................... NO
    Snowmelt ............... NO
    Groundwater ............ NO
    Flow Routing ........... YES
    Ponding Allowed ........ NO
    Water Quality .......... YES
  Infiltration Method ...... HORTON
  Flow Routing Method ...... DYNWAVE
  Surcharge Method ......... EXTRAN
  Starting Date ............ 08/28/2015 08:00:00
  Ending Date .............. 08/28/2015 15:50:00
  Antecedent Dry Days ...... 8.0
  Report Time Step ......... 00:01:00
  Wet Time Step ............ 00:01:00
  Dry Time Step ............ 00:01:00
  Routing Time Step ........ 5.00 sec
  Variable Time Step ....... YES
  Maximum Trials ........... 8
  Number of Threads ........ 4
  Head Tolerance ........... 0.001500 m
  
  
  **************************        Volume         Depth
  Runoff Quantity Continuity     hectare-m            mm
  **************************     ---------       -------
  Total Precipitation ......         1.428         3.126
  Evaporation Loss .........         0.000         0.000
  Infiltration Loss ........         0.348         0.762
  Surface Runoff ...........         0.718         1.572
  Final Storage ............         0.362         0.792
  Continuity Error (%) .....        -0.023
  
  
  **************************           COD            SS            TN            TP         NH4-N
  Runoff Quality Continuity             kg            kg            kg            kg            kg
  **************************    ----------    ----------    ----------    ----------    ----------
  Initial Buildup ..........     41378.656     70582.865      1804.177       168.684      1032.807
  Surface Buildup ..........        13.278        13.414         3.347         0.311         1.988
  Wet Deposition ...........         0.000         0.000         0.000         0.000         0.000
  Sweeping Removal .........         0.000         0.000         0.000         0.000         0.000
  Infiltration Loss ........        11.426        18.551         0.246         0.016         0.114
  BMP Removal ..............         0.000         0.000         0.000         0.000         0.000
  Surface Runoff ...........       306.826       485.983         6.605         0.412         3.094
  Remaining Buildup ........     41073.588     70091.598      1800.671       168.567      1031.586
  Continuity Error (%) .....         0.000         0.000         0.000         0.000         0.000
  
  
  **************************        Volume        Volume
  Flow Routing Continuity        hectare-m      10^6 ltr
  **************************     ---------     ---------
  Dry Weather Inflow .......         0.616         6.165
  Wet Weather Inflow .......         0.718         7.176
  Groundwater Inflow .......         0.000         0.000
  RDII Inflow ..............         0.000         0.000
  External Inflow ..........         0.102         1.024
  External Outflow .........         1.063        10.630
  Flooding Loss ............         0.085         0.847
  Evaporation Loss .........         0.000         0.000
  Exfiltration Loss ........         0.000         0.000
  Initial Stored Volume ....         0.076         0.761
  Final Stored Volume ......         0.445         4.454
  Continuity Error (%) .....        -5.330
  
  
  **************************           COD            SS            TN            TP         NH4-N
  Quality Routing Continuity            kg            kg            kg            kg            kg
  **************************    ----------    ----------    ----------    ----------    ----------
  Dry Weather Inflow .......      1541.201      2465.922       147.955        18.494        92.472
  Wet Weather Inflow .......       306.702       485.802         6.602         0.412         3.093
  Groundwater Inflow .......         0.000         0.000         0.000         0.000         0.000
  RDII Inflow ..............         0.000         0.000         0.000         0.000         0.000
  External Inflow ..........       183.418       293.469        17.608         2.201        11.005
  External Outflow .........      1586.057      2543.330       145.658        18.091        90.727
  Flooding Loss ............        39.047        62.240         1.586         0.161         0.904
  Exfiltration Loss ........         0.000         0.000         0.000         0.000         0.000
  Mass Reacted .............         0.000         0.000         0.000         0.000         0.000
  Initial Stored Mass ......         0.000         0.000         0.000         0.000         0.000
  Final Stored Mass ........       295.666       464.277        17.073         1.924        10.155
  Continuity Error (%) .....         5.442         5.403         4.559         4.408         4.490
  
  
  *************************
  Highest Continuity Errors
  *************************
  Node HS02004842 (35.10%)
  Node JK-storage (-30.44%)
  Node YS02001884 (29.83%)
  Node YS02001774 (27.07%)
  Node YSB1171 (9.86%)
  
  
  ***************************
  Time-Step Critical Elements
  ***************************
  Link YS02001793JiankangQianchi (25.32%)
  Link WS02006280WS02006229 (24.91%)
  Link WS02006252WS02006251 (14.79%)
  Link WS02006238WS02006235 (12.71%)
  Link WS02003066WSF200 (5.59%)
  
  
  ********************************
  Highest Flow Instability Indexes
  ********************************
  Link WS02006113WS02006111 (52)
  Link YS02001629YS02163301 (12)
  Link YS02001765YS02001762 (12)
  Link YS02001767YS02001765 (12)
  Link YS02163301YS02001633 (12)
  
  
  *************************
  Routing Time Step Summary
  *************************
  Minimum Time Step           :     0.24 sec
  Average Time Step           :     2.91 sec
  Maximum Time Step           :     5.00 sec
  Percent in Steady State     :    -0.00
  Average Iterations per Step :     2.53
  Percent Not Converging      :     2.37
  
  
  ***************************
  Subcatchment Runoff Summary
  ***************************
  
  ------------------------------------------------------------------------------------------------------------------------------
                            Total      Total      Total      Total     Imperv       Perv      Total       Total     Peak  Runoff
                           Precip      Runon       Evap      Infil     Runoff     Runoff     Runoff      Runoff   Runoff   Coeff
  Subcatchment                 mm         mm         mm         mm         mm         mm         mm    10^6 ltr      LPS
  ------------------------------------------------------------------------------------------------------------------------------
  sub0                       3.13       0.00       0.00       0.22       2.86       0.00       2.86        0.00     0.94   0.916
  sub1                       3.13       0.00       0.00       0.34       2.70       0.00       2.70        0.02     4.92   0.863
  sub2                       3.13       0.00       0.00       1.16       1.89       0.00       1.89        0.02     4.30   0.606
  sub3                       3.13       0.00       0.00       1.16       1.86       0.00       1.86        0.04     8.67   0.596
  sub4                       3.13       0.00       0.00       0.34       2.57       0.00       2.57        0.05     9.52   0.823
  sub5                       3.13       0.00       0.00       0.22       2.82       0.00       2.82        0.03     8.75   0.902
  sub7                       3.13       0.00       0.00       0.28       2.78       0.00       2.78        0.01     3.12   0.891
  sub8                       3.13       0.00       0.00       0.28       2.78       0.00       2.78        0.02     5.49   0.888
  sub9                       3.13       0.00       0.00       0.28       2.77       0.00       2.77        0.01     4.07   0.888
  sub10                      3.13       0.00       0.00       0.25       2.79       0.00       2.79        0.03     8.76   0.894
  sub11                      3.13       0.00       0.00       0.25       2.81       0.00       2.81        0.03    10.35   0.899
  sub12                      3.13       0.00       0.00       0.41       2.67       0.00       2.67        0.02     8.75   0.855
  sub14                      3.13       0.00       0.00       0.28       2.77       0.00       2.77        0.03     7.94   0.887
  sub15                      3.13       0.00       0.00       0.94       2.13       0.00       2.13        0.04    10.76   0.682
  sub16                      3.13       0.00       0.00       1.03       2.06       0.00       2.06        0.02     7.70   0.658
  sub17                      3.13       0.00       0.00       1.00       2.08       0.00       2.08        0.02     6.23   0.667
  sub22                      3.13       0.00       0.00       1.34       1.74       0.00       1.74        0.11    35.41   0.557
  sub23                      3.13       0.00       0.00       1.16       1.93       0.00       1.93        0.09    30.16   0.617
  sub60                      3.13       0.00       0.00       0.38       1.70       0.00       1.70        0.52    41.99   0.545
  sub61                      3.13       0.00       0.00       0.53       1.87       0.00       1.87        0.58    54.50   0.599
  sub62                      3.13       0.00       0.00       0.25       1.99       0.00       1.99        0.61    55.13   0.637
  sub63                      3.13       0.00       0.00       0.91       1.68       0.00       1.68        0.51    51.60   0.538
  sub64                      3.13       0.00       0.00       0.47       1.62       0.00       1.62        0.49    39.79   0.520
  sub65                      3.13       0.00       0.00       0.41       1.64       0.00       1.64        0.50    40.28   0.525
  sub66                      3.13       0.00       0.00       0.91       1.43       0.00       1.43        0.44    36.84   0.458
  sub67                      3.13       0.00       0.00       0.25       2.24       0.00       2.24        0.69    73.15   0.717
  sub68                      3.13       0.00       0.00       0.44       2.00       0.00       2.00        0.62    60.81   0.641
  sub69                      3.13       0.00       0.00       0.47       2.21       0.00       2.21        0.52    62.80   0.708
  sub70                      3.13       2.26       0.00       1.83       2.58       0.00       2.58        0.59    45.83   0.479
  sub71                      3.13       0.00       0.00       0.25       1.89       0.00       1.89        0.45    38.01   0.603
  sub72                      3.13       0.00       0.00       0.22       1.26       0.00       1.26        0.26    17.24   0.402
  1                          3.13       2.51       0.00       1.29       2.53       0.17       2.71        0.64    41.42   0.480
  2                          3.13       0.00       0.00       2.30       0.67       0.04       0.72        0.29    37.72   0.229
  
  
  ****************************
  Subcatchment Washoff Summary
  ****************************
  
  ------------------------------------------------------------------------------------------
                                 COD            SS            TN            TP         NH4-N
  Subcatchment                    kg            kg            kg            kg            kg
  ------------------------------------------------------------------------------------------
  sub0                         0.357         0.632         0.006         0.000         0.003
  sub1                         1.405         2.494         0.027         0.002         0.013
  sub2                         0.799         1.363         0.019         0.001         0.009
  sub3                         1.883         3.154         0.045         0.003         0.020
  sub4                         2.983         5.195         0.065         0.004         0.031
  sub5                         3.184         5.577         0.056         0.004         0.027
  sub7                         0.773         1.409         0.015         0.001         0.007
  sub8                         1.178         2.185         0.025         0.001         0.012
  sub9                         0.983         1.799         0.020         0.001         0.010
  sub10                        2.691         4.786         0.050         0.003         0.024
  sub11                        2.741         4.966         0.053         0.003         0.025
  sub12                        2.313         4.142         0.042         0.003         0.020
  sub14                        2.066         3.741         0.041         0.003         0.019
  sub15                        2.366         4.075         0.049         0.003         0.022
  sub16                        1.544         2.678         0.031         0.002         0.014
  sub17                        1.395         2.394         0.027         0.002         0.012
  sub22                        6.997        11.819         0.142         0.010         0.065
  sub23                        4.464         7.851         0.106         0.007         0.047
  sub60                       19.479        30.433         0.446         0.024         0.212
  sub61                       25.232        39.335         0.517         0.032         0.247
  sub62                       26.801        42.571         0.590         0.033         0.281
  sub63                       19.345        29.931         0.453         0.030         0.204
  sub64                       22.223        33.382         0.450         0.030         0.212
  sub65                       22.796        34.393         0.467         0.031         0.220
  sub66                       14.071        21.473         0.343         0.020         0.157
  sub67                       40.477        63.857         0.763         0.052         0.366
  sub68                       28.916        45.712         0.617         0.038         0.291
  sub69                       28.044        45.162         0.573         0.037         0.270
  sub70                       39.044        62.792         0.886         0.057         0.403
  sub71                       17.797        28.482         0.424         0.022         0.201
  sub72                       10.057        14.772         0.211         0.013         0.101
  1                           16.359        26.524         0.391         0.025         0.174
  2                            3.153         4.856         0.116         0.007         0.047
  ------------------------------------------------------------------------------------------
  System                     373.914       593.938         8.064         0.506         3.768
  
  
  ******************
  Node Depth Summary
  ******************
  
  ---------------------------------------------------------------------------------
                                 Average  Maximum  Maximum  Time of Max    Reported
                                   Depth    Depth      HGL   Occurrence   Max Depth
  Node                 Type       Meters   Meters   Meters  days hr:min      Meters
  ---------------------------------------------------------------------------------
  WS02001211           JUNCTION     0.65     0.77     5.61     0  03:14        0.77
  WS02001212           JUNCTION     0.37     0.48     5.54     0  03:13        0.48
  WS02001213           JUNCTION     0.59     0.72     5.48     0  03:13        0.72
  WS02003069           JUNCTION     0.35     0.50     5.09     0  03:11        0.50
  WS02003072           JUNCTION     0.42     0.57     4.94     0  03:12        0.57
  WS02003073           JUNCTION     0.25     0.34     4.41     0  03:13        0.34
  WS02003060           JUNCTION     0.32     0.45     5.38     0  03:11        0.45
  WS02003066           JUNCTION     0.15     0.25     5.80     0  07:34        0.25
  WS02003059           JUNCTION     0.64     0.76     5.45     0  03:12        0.76
  WS02003067           JUNCTION     0.39     0.61     5.93     0  07:34        0.61
  WS02004401           JUNCTION     0.48     0.71     6.71     0  07:31        0.71
  WS02004402           JUNCTION     0.51     0.74     6.70     0  07:31        0.74
  WS02004403           JUNCTION     0.54     0.76     6.69     0  07:31        0.76
  WS02004404           JUNCTION     0.62     0.84     6.69     0  07:31        0.84
  WS02004406           JUNCTION     0.63     0.85     6.68     0  07:31        0.85
  WS02004409           JUNCTION     0.28     0.51     6.28     0  07:33        0.51
  WS02004410           JUNCTION     0.30     0.53     6.25     0  07:33        0.53
  WS02004411           JUNCTION     0.32     0.55     6.23     0  07:34        0.55
  WS02004412           JUNCTION     0.34     0.57     6.21     0  07:34        0.57
  WS02004413           JUNCTION     0.49     0.74     6.21     0  07:34        0.74
  WS02004405           JUNCTION     0.61     0.84     6.69     0  07:31        0.84
  WS02006109           JUNCTION     0.55     0.82     7.43     0  07:26        0.81
  WS02006110           JUNCTION     0.57     0.80     7.39     0  07:26        0.80
  WS02006111           JUNCTION     0.14     0.24     6.95     0  07:26        0.24
  WS02006112           JUNCTION     0.63     0.88     6.76     0  07:30        0.88
  WS02006113           JUNCTION     0.21     0.38     7.27     0  07:26        0.38
  WS02006115           JUNCTION     0.36     0.59     6.73     0  07:30        0.59
  WS02006116           JUNCTION     0.45     0.68     6.72     0  07:30        0.68
  WS02006230           JUNCTION     0.46     0.82     7.56     0  07:25        0.82
  WS02006231           JUNCTION     0.26     0.56     7.68     0  07:25        0.56
  WS02006232           JUNCTION     0.37     0.71     7.75     0  07:25        0.71
  WS02006234           JUNCTION     0.27     0.65     7.81     0  07:24        0.65
  WS02006235           JUNCTION     0.30     0.69     7.85     0  07:24        0.69
  WS02006238           JUNCTION     0.32     0.72     7.86     0  07:24        0.72
  WS02006240           JUNCTION     0.21     0.63     7.92     0  07:24        0.63
  WS02006242           JUNCTION     0.25     0.70     7.97     0  07:23        0.70
  WS02006243           JUNCTION     0.15     0.58     8.00     0  07:23        0.58
  WS02006245           JUNCTION     0.13     0.55     8.04     0  07:22        0.55
  WS02006247           JUNCTION     0.14     0.58     8.08     0  07:22        0.57
  WS02006248           JUNCTION     0.10     0.53     8.11     0  07:21        0.52
  WS02006249           JUNCTION     0.12     0.57     8.17     0  07:21        0.57
  WS02006239           JUNCTION     0.26     0.69     7.90     0  07:24        0.69
  WS02006251           JUNCTION     0.10     0.58     8.25     0  07:20        0.58
  WS02006252           JUNCTION     0.06     0.58     8.83     0  07:20        0.58
  WS02006253           JUNCTION     0.14     0.61     8.25     0  07:20        0.60
  WS02006256           JUNCTION     0.95     2.35     9.28     0  00:00        2.35
  WS02004138           JUNCTION     0.14     0.20     7.45     0  00:00        0.19
  WS02004139           JUNCTION     0.60     0.72     5.63     0  03:15        0.72
  WS02004407           JUNCTION     0.13     0.24     6.55     0  07:31        0.24
  WS02006228           JUNCTION     0.53     0.82     7.47     0  07:25        0.82
  WS02006229           JUNCTION     0.49     0.80     7.49     0  07:26        0.80
  WS02006280           JUNCTION     0.05     0.12     8.39     0  02:16        0.12
  WS02006284           JUNCTION     0.33     0.45     8.84     0  02:16        0.45
  WS02006287           JUNCTION     0.07     0.17     9.13     0  02:15        0.17
  WSF200               JUNCTION     0.12     0.22     5.45     0  07:35        0.22
  HS02004901           JUNCTION     0.10     0.20    10.02     0  02:14        0.20
  HS02004881           JUNCTION     0.00     0.02     9.05     0  02:15        0.02
  HS02004876           JUNCTION     0.03     0.09     9.12     0  02:15        0.09
  HS02004870           JUNCTION     0.01     0.03     9.32     0  02:15        0.03
  HS02004862           JUNCTION     0.01     0.04     9.42     0  02:16        0.04
  HS02004856           JUNCTION     0.07     0.10     9.52     0  02:15        0.10
  HS02004852           JUNCTION     0.00     0.02     9.53     0  02:16        0.02
  HS02004848           JUNCTION     0.00     0.02     9.62     0  02:13        0.02
  HS02004842           JUNCTION     0.32     0.35     9.62     0  02:13        0.35
  HS02004837           JUNCTION     0.02     0.04     9.62     0  02:13        0.04
  HS02004830           JUNCTION     0.03     0.05     9.52     0  02:14        0.05
  HS02004824           JUNCTION     0.02     0.03     9.44     0  02:16        0.03
  HS02004817           JUNCTION     0.40     0.49     9.34     0  02:16        0.49
  HS02004807           JUNCTION     0.10     0.17     9.34     0  02:16        0.17
  HS02004802           JUNCTION     0.14     0.21     9.34     0  02:16        0.21
  HS02004799           JUNCTION     0.09     0.21     9.42     0  02:14        0.21
  HS02004792           JUNCTION     0.02     0.07     9.60     0  02:13        0.07
  HS02004788           JUNCTION     0.02     0.06     9.95     0  02:14        0.06
  HS02004785           JUNCTION     0.03     0.11    10.01     0  02:14        0.11
  HS02004777           JUNCTION     0.12     0.22    10.02     0  02:14        0.22
  HS02004770           JUNCTION     0.09     0.19    10.02     0  02:14        0.19
  HS02004480           JUNCTION     0.05     0.16     9.40     0  02:14        0.16
  HS02004479           JUNCTION     0.09     0.20     9.40     0  02:14        0.20
  HS02004478           JUNCTION     0.04     0.10     9.33     0  02:15        0.10
  YS02001745           JUNCTION     0.19     0.45     7.97     0  07:11        0.45
  YS02001748           JUNCTION     0.46     0.89     7.97     0  07:12        0.89
  YS02001751           JUNCTION     0.61     1.09     7.97     0  07:12        1.09
  YS02001754           JUNCTION     0.83     1.36     7.97     0  07:12        1.36
  YS02001762           JUNCTION     1.01     1.57     7.97     0  07:11        1.57
  YS02001765           JUNCTION     0.97     1.52     7.97     0  07:11        1.52
  YS02001767           JUNCTION     0.94     1.48     7.97     0  07:11        1.48
  YS02001770           JUNCTION     0.93     1.47     7.97     0  07:11        1.47
  YS02001774           JUNCTION     0.99     1.55     7.97     0  07:11        1.55
  YS02001779           JUNCTION     0.77     1.28     7.97     0  07:11        1.28
  YS02001882           JUNCTION     0.21     0.34     7.06     0  02:45        0.34
  YS02001884           JUNCTION     0.29     0.44     7.06     0  02:45        0.44
  YS02001759           JUNCTION     1.04     1.60     7.97     0  07:12        1.60
  YS02001887           JUNCTION     0.37     0.52     7.06     0  02:45        0.52
  YS02001890           JUNCTION     0.40     0.55     7.06     0  02:44        0.55
  YS02001898           JUNCTION     0.18     0.31     7.04     0  02:46        0.31
  YS02001901           JUNCTION     0.29     0.43     7.04     0  02:46        0.43
  YS02001904           JUNCTION     0.27     0.41     7.04     0  02:46        0.41
  YS02001907           JUNCTION     0.59     0.75     7.04     0  02:46        0.75
  YS02001910           JUNCTION     0.38     0.53     7.04     0  02:46        0.53
  YS02001915           JUNCTION     0.20     0.32     7.04     0  02:45        0.32
  YS02001918           JUNCTION     0.06     0.07     7.14     0  03:03        0.07
  YS02001619           JUNCTION     0.58     1.04     7.97     0  07:11        1.04
  YS02001629           JUNCTION     0.88     1.42     7.97     0  07:12        1.42
  YS02001641           JUNCTION     0.98     1.53     7.97     0  07:12        1.53
  YS02001644           JUNCTION     0.99     1.54     7.97     0  07:12        1.54
  YS02001652           JUNCTION     0.84     1.37     7.97     0  07:12        1.37
  YS02001655           JUNCTION     0.64     1.12     7.97     0  07:12        1.12
  YS02001920           JUNCTION     0.14     0.17     7.18     0  03:02        0.17
  YS02001923           JUNCTION     0.04     0.06     7.32     0  03:02        0.06
  YS02001926           JUNCTION     0.11     0.14     7.58     0  03:01        0.14
  YS02001929           JUNCTION     0.05     0.06     7.76     0  03:01        0.06
  YS02001658           JUNCTION     0.41     0.83     7.97     0  07:12        0.83
  YS02001661           JUNCTION     0.28     0.56     7.97     0  07:12        0.56
  YS02001664           JUNCTION     0.05     0.09     8.01     0  02:37        0.09
  YS02001622           JUNCTION     0.60     1.06     7.97     0  07:11        1.06
  YS02001633           JUNCTION     0.97     1.51     7.97     0  07:12        1.51
  YS02001649           JUNCTION     1.02     1.58     7.97     0  07:12        1.58
  YS02001757           JUNCTION     1.14     1.71     7.97     0  07:12        1.71
  YS02001895           JUNCTION     0.18     0.31     7.05     0  02:45        0.31
  YS02001625           JUNCTION     0.85     1.36     7.97     0  07:12        1.36
  YS02163301           JUNCTION     0.91     1.45     7.97     0  07:12        1.45
  YS02163601           JUNCTION     1.02     1.57     7.97     0  07:12        1.57
  YS02164001           JUNCTION     0.96     1.51     7.97     0  07:12        1.51
  YS02001647           JUNCTION     0.83     1.36     7.97     0  07:12        1.36
  YSB1154              JUNCTION     0.22     0.35     9.40     0  02:14        0.35
  YSB6556              JUNCTION     0.12     0.23     9.40     0  02:14        0.23
  YSB1174              JUNCTION     0.17     0.29     9.40     0  02:14        0.29
  YSB1171              JUNCTION     0.37     0.50     9.40     0  02:14        0.50
  YS02006553           JUNCTION     0.59     0.76     7.04     0  02:46        0.76
  YS02006561           JUNCTION     0.10     0.17     6.83     0  02:46        0.17
  YS02006556           JUNCTION     0.56     0.73     7.04     0  02:46        0.73
  YS02006558           JUNCTION     0.61     0.77     7.04     0  02:46        0.77
  YS02001783           JUNCTION     0.16     0.30     6.44     0  02:47        0.30
  YS02001784           JUNCTION     0.20     0.33     6.40     0  02:47        0.33
  YS02001786           JUNCTION     0.17     0.28     6.31     0  02:47        0.28
  YS02001788           JUNCTION     0.12     0.20     6.18     0  02:48        0.20
  YS02001790           JUNCTION     0.14     0.25     5.89     0  02:48        0.25
  YS02001791           JUNCTION     0.10     0.17     5.64     0  02:46        0.17
  YS02001793           JUNCTION     0.06     0.67     5.51     0  02:41        0.61
  WSC                  OUTFALL      0.25     0.34     1.01     0  03:13        0.34
  JK-storage           STORAGE      0.80     4.65     5.45     0  02:42        4.65
  CC-storage           STORAGE      0.50     0.97     7.97     0  07:12        0.97
  XR-storage           STORAGE      2.33     5.58     3.58     0  06:55        5.58
  
  
  *******************
  Node Inflow Summary
  *******************
  
  -------------------------------------------------------------------------------------------------
                                  Maximum  Maximum                  Lateral       Total        Flow
                                  Lateral    Total  Time of Max      Inflow      Inflow     Balance
                                   Inflow   Inflow   Occurrence      Volume      Volume       Error
  Node                 Type           LPS      LPS  days hr:min    10^6 ltr    10^6 ltr     Percent
  -------------------------------------------------------------------------------------------------
  WS02001211           JUNCTION      7.35   388.66     0  07:44       0.207        7.29       0.548
  WS02001212           JUNCTION      0.00   389.86     0  07:45           0        7.25       0.373
  WS02001213           JUNCTION      0.00   391.08     0  07:45           0        7.22       0.337
  WS02003069           JUNCTION      0.32   732.01     0  03:11     0.00902        10.7       0.265
  WS02003072           JUNCTION      0.00   732.00     0  03:12           0        10.7       0.336
  WS02003073           JUNCTION      1.82   733.83     0  03:12      0.0514        10.7       0.385
  WS02003060           JUNCTION     16.53   731.68     0  03:11       0.466        10.7       0.252
  WS02003066           JUNCTION      0.00   335.95     0  07:34           0        3.08       0.097
  WS02003059           JUNCTION      0.00   393.18     0  07:44           0        7.21       0.527
  WS02003067           JUNCTION      0.00   335.85     0  07:34           0        3.09       0.217
  WS02004401           JUNCTION      0.00   364.42     0  07:29           0        3.24       0.427
  WS02004402           JUNCTION      0.00   360.36     0  07:29           0        3.23       0.424
  WS02004403           JUNCTION      0.00   357.80     0  07:30           0        3.21       0.402
  WS02004404           JUNCTION      0.16   356.12     0  07:30     0.00457         3.2       0.320
  WS02004406           JUNCTION      0.00   354.54     0  07:31           0        3.18       0.795
  WS02004409           JUNCTION      0.00   354.17     0  07:31           0        3.15       0.268
  WS02004410           JUNCTION      0.00   348.79     0  07:32           0        3.14       0.340
  WS02004411           JUNCTION      0.00   343.77     0  07:32           0        3.13       0.375
  WS02004412           JUNCTION      0.00   339.79     0  07:33           0        3.12       0.441
  WS02004413           JUNCTION      0.00   337.06     0  07:34           0        3.11       0.702
  WS02004405           JUNCTION      0.04   355.42     0  07:30     0.00107         3.2       0.490
  WS02006109           JUNCTION      1.23   393.19     0  07:25      0.0347        3.29       0.295
  WS02006110           JUNCTION      0.00   393.02     0  07:25           0        3.28       0.313
  WS02006111           JUNCTION      0.00   400.76     0  07:26           0        3.26       0.041
  WS02006112           JUNCTION      6.23   393.21     0  07:26      0.0179        3.28       0.577
  WS02006113           JUNCTION      0.00   392.59     0  07:26           0        3.27       0.094
  WS02006115           JUNCTION      0.00   384.66     0  07:26           0        3.26       0.325
  WS02006116           JUNCTION      0.00   370.82     0  07:27           0        3.25       0.346
  WS02006230           JUNCTION     10.28   388.15     0  07:23        0.29         2.6       0.259
  WS02006231           JUNCTION      0.00   381.60     0  07:24           0        2.31      -0.014
  WS02006232           JUNCTION      0.00   382.10     0  07:24           0        2.32       0.375
  WS02006234           JUNCTION      0.00   383.54     0  07:23           0        2.31      -0.194
  WS02006235           JUNCTION      0.00   386.83     0  07:22           0        2.48       0.328
  WS02006238           JUNCTION      0.00   298.25     0  07:22           0       0.631       0.100
  WS02006240           JUNCTION      0.00   324.93     0  07:22           0       0.499       0.232
  WS02006242           JUNCTION      0.00   338.60     0  07:21           0       0.434       0.340
  WS02006243           JUNCTION      0.00   351.64     0  07:21           0       0.379      -0.802
  WS02006245           JUNCTION      0.00   358.12     0  07:21           0       0.358       1.062
  WS02006247           JUNCTION      0.00   364.35     0  07:21           0       0.347       0.224
  WS02006248           JUNCTION      0.00   369.72     0  07:20           0       0.342       0.039
  WS02006249           JUNCTION      0.00   375.76     0  07:20           0       0.342       0.570
  WS02006239           JUNCTION      0.00   309.22     0  07:22           0       0.567       0.047
  WS02006251           JUNCTION      0.08   399.78     0  07:20     0.00217        0.35      -0.065
  WS02006252           JUNCTION      0.00   399.43     0  07:20           0        0.24       0.041
  WS02006253           JUNCTION      0.94    29.34     0  07:11     0.00232       0.108       0.193
  WS02006256           JUNCTION      0.00   983.00     0  00:00           0        2.83       0.006
  WS02004138           JUNCTION      0.00   380.00     0  00:00           0        7.13       0.079
  WS02004139           JUNCTION      0.32   396.51     0  00:00     0.00905        7.13       0.634
  WS02004407           JUNCTION      0.00   354.30     0  07:31           0        3.16       0.109
  WS02006228           JUNCTION      0.00   392.65     0  07:25           0        3.26       0.267
  WS02006229           JUNCTION      0.00   393.87     0  07:25           0        3.27       0.281
  WS02006280           JUNCTION      0.00   141.44     0  02:16           0       0.679       0.011
  WS02006284           JUNCTION      0.10   141.44     0  02:15      0.0027        0.68       0.162
  WS02006287           JUNCTION      0.00   141.37     0  02:15           0       0.678       0.103
  WSF200               JUNCTION      0.00   335.92     0  07:34           0        3.08       0.081
  HS02004901           JUNCTION      7.70     7.70     0  02:07      0.0215      0.0217       8.819
  HS02004881           JUNCTION      3.12    25.73     0  02:15     0.00938      0.0973       0.061
  HS02004876           JUNCTION      4.92    22.92     0  02:15      0.0179      0.0885       0.586
  HS02004870           JUNCTION      5.49    18.16     0  02:14      0.0177      0.0706       0.150
  HS02004862           JUNCTION      4.50    13.15     0  02:15      0.0233      0.0531       0.313
  HS02004856           JUNCTION      4.07     8.72     0  02:14      0.0133      0.0312       4.816
  HS02004852           JUNCTION      0.00     4.99     0  02:15           0      0.0179       0.263
  HS02004848           JUNCTION      8.67     8.67     0  02:16      0.0419      0.0419       0.102
  HS02004842           JUNCTION      0.00     4.48     0  00:03           0       0.037      54.089
  HS02004837           JUNCTION     15.11    18.63     0  02:12        0.21       0.234       0.350
  HS02004830           JUNCTION      0.15    18.77     0  02:13     0.00423       0.224       0.551
  HS02004824           JUNCTION      9.57    28.24     0  02:16      0.0551       0.278       0.194
  HS02004817           JUNCTION      0.60    28.83     0  02:16      0.0169       0.294       5.994
  HS02004807           JUNCTION     10.35    38.15     0  02:15      0.0326        0.31       1.379
  HS02004802           JUNCTION      0.00    38.22     0  02:17           0       0.306       1.347
  HS02004799           JUNCTION      7.94    88.00     0  02:13      0.0264       0.335       0.688
  HS02004792           JUNCTION     35.69    80.34     0  02:13       0.118       0.309       0.136
  HS02004788           JUNCTION     12.43    46.77     0  02:14      0.0837       0.192       0.205
  HS02004785           JUNCTION      0.15    34.92     0  02:13     0.00423       0.111       0.432
  HS02004777           JUNCTION      0.03    35.40     0  02:11    0.000846       0.111       4.887
  HS02004770           JUNCTION     30.16    36.71     0  02:09      0.0919       0.112       2.848
  HS02004480           JUNCTION      0.00   103.59     0  02:14           0       0.388       0.175
  HS02004479           JUNCTION      0.00    15.99     0  02:16           0      0.0647       1.138
  HS02004478           JUNCTION      0.00   141.38     0  02:15           0       0.679       0.095
  YS02001745           JUNCTION     41.99    56.14     0  05:06       0.516       0.522       1.136
  YS02001748           JUNCTION      0.04    85.96     0  03:44     0.00127       0.535       3.812
  YS02001751           JUNCTION      0.01   112.61     0  03:44     0.00031        0.51       4.867
  YS02001754           JUNCTION      0.26    86.28     0  02:56     0.00733       0.487       5.544
  YS02001762           JUNCTION      0.00    74.22     0  03:00           0       0.533       4.375
  YS02001765           JUNCTION      0.00    77.49     0  02:59           0       0.536       4.887
  YS02001767           JUNCTION      0.54    78.93     0  03:52      0.0151       0.559       6.985
  YS02001770           JUNCTION     55.29    87.72     0  03:51       0.616       0.646       5.475
  YS02001774           JUNCTION      0.00    52.93     0  03:52           0      0.0979      37.111
  YS02001779           JUNCTION      0.01    51.50     0  03:52    0.000141      0.0421      60.074
  YS02001882           JUNCTION      0.00     2.66     0  02:06           0     0.00365      67.189
  YS02001884           JUNCTION      0.00     7.77     0  02:09           0      0.0148      42.502
  YS02001759           JUNCTION     54.54   131.07     0  02:59       0.578        1.08       2.296
  YS02001887           JUNCTION     73.60    73.60     0  02:35       0.704        0.71       0.947
  YS02001890           JUNCTION      0.00    73.08     0  02:37           0       0.691       1.072
  YS02001898           JUNCTION      0.00    72.76     0  02:40           0       0.681       0.262
  YS02001901           JUNCTION      0.00    72.79     0  02:41           0        0.68       0.747
  YS02001904           JUNCTION      0.00    72.44     0  02:42           0       0.679       0.695
  YS02001907           JUNCTION      0.00   129.81     0  02:48           0        1.45       1.494
  YS02001910           JUNCTION      0.00    58.16     0  02:55           0       0.776       1.246
  YS02001915           JUNCTION     38.03    57.74     0  02:54       0.446        0.78       0.513
  YS02001918           JUNCTION      0.00    20.17     0  03:02           0       0.335       0.260
  YS02001619           JUNCTION     36.84    36.84     0  02:48       0.438       0.439       2.879
  YS02001629           JUNCTION      0.00    66.02     0  04:07           0       0.365       8.566
  YS02001641           JUNCTION      0.00    76.10     0  03:47           0       0.758       2.989
  YS02001644           JUNCTION     39.82   111.71     0  03:00       0.495        1.22       2.227
  YS02001652           JUNCTION      0.00    63.21     0  02:59           0       0.468       5.361
  YS02001655           JUNCTION      0.15   108.52     0  03:42     0.00434       0.495       5.295
  YS02001920           JUNCTION      2.87    20.17     0  03:02      0.0809       0.337       0.522
  YS02001923           JUNCTION      0.04    17.30     0  03:01     0.00106       0.256       0.091
  YS02001926           JUNCTION      0.05    17.29     0  03:01     0.00147       0.257       0.663
  YS02001929           JUNCTION     17.24    17.24     0  03:01       0.256       0.256       0.087
  YS02001658           JUNCTION      0.00    78.78     0  03:43           0       0.517       3.990
  YS02001661           JUNCTION      0.00    51.60     0  02:37           0       0.516       2.275
  YS02001664           JUNCTION     51.60    51.60     0  02:37       0.509       0.509       0.021
  YS02001622           JUNCTION      0.00    56.76     0  04:08           0       0.429       7.992
  YS02001633           JUNCTION     40.48    77.42     0  03:03        0.51       0.818       4.127
  YS02001649           JUNCTION      0.00   184.84     0  03:00           0         1.6       2.468
  YS02001757           JUNCTION      0.00   366.88     0  02:58           0        3.03       3.179
  YS02001895           JUNCTION      0.00    72.84     0  02:40           0       0.684       0.486
  YS02001625           JUNCTION      0.00    71.76     0  04:08           0       0.406      10.691
  YS02163301           JUNCTION      0.00    41.03     0  04:08           0       0.333       7.983
  YS02163601           JUNCTION      0.11    80.86     0  03:52      0.0031       0.784       4.104
  YS02164001           JUNCTION      0.00    80.19     0  03:52           0       0.763       2.955
  YS02001647           JUNCTION      0.00   113.17     0  02:59           0        1.19       2.557
  YSB1154              JUNCTION      8.75     8.75     0  02:11      0.0319      0.0333       4.540
  YSB6556              JUNCTION      0.00     8.68     0  02:13           0      0.0342       3.764
  YSB1174              JUNCTION      8.75     8.75     0  02:07      0.0234      0.0243       5.583
  YSB1171              JUNCTION      0.00    16.05     0  02:14           0      0.0641      10.939
  YS02006553           JUNCTION      0.00   129.86     0  02:48           0        1.43       0.972
  YS02006561           JUNCTION      0.00   190.82     0  02:46           0        2.03       0.027
  YS02006556           JUNCTION      0.00   129.91     0  02:48           0        1.44       0.697
  YS02006558           JUNCTION     61.69   190.84     0  02:46       0.641        2.05       0.211
  YS02001783           JUNCTION      0.00   190.82     0  02:46           0        2.03       0.062
  YS02001784           JUNCTION      1.06   191.88     0  02:47      0.0299        2.05       0.104
  YS02001786           JUNCTION      0.06   191.91     0  02:47     0.00159        2.05       0.100
  YS02001788           JUNCTION      0.07   191.97     0  02:47       0.002        2.05       0.057
  YS02001790           JUNCTION      0.15   192.12     0  02:48     0.00437        2.06       0.073
  YS02001791           JUNCTION      0.00   192.12     0  02:48           0        2.06       0.036
  YS02001793           JUNCTION      0.00   320.46     0  02:44           0        2.06       0.028
  WSC                  OUTFALL       0.00   733.83     0  03:13           0        10.6       0.000
  JK-storage           STORAGE       0.00   755.37     0  02:45           0        2.21     -23.337
  CC-storage           STORAGE       0.00   288.48     0  02:50           0        2.92       1.872
  XR-storage           STORAGE     274.36   274.36     0  02:42        6.56        7.16      -1.932
  
  
  **********************
  Node Surcharge Summary
  **********************
  
  Surcharging occurs when water rises above the top of the highest conduit.
  ---------------------------------------------------------------------
                                               Max. Height   Min. Depth
                                   Hours       Above Crown    Below Rim
  Node                 Type      Surcharged         Meters       Meters
  ---------------------------------------------------------------------
  WS02006232           JUNCTION        0.06          0.012        1.468
  WS02006252           JUNCTION        0.13          0.185        0.915
  WS02006256           JUNCTION        5.48          2.050        0.000
  YS02001751           JUNCTION        1.45          0.088        1.112
  YS02001754           JUNCTION        2.97          0.309        0.841
  YS02001762           JUNCTION        4.22          0.567        0.583
  YS02001765           JUNCTION        3.98          0.517        0.583
  YS02001767           JUNCTION        3.84          0.478        0.552
  YS02001770           JUNCTION        3.66          0.442        0.478
  YS02001774           JUNCTION        4.12          0.545        0.505
  YS02001779           JUNCTION        2.73          0.281        0.399
  YS02001759           JUNCTION        4.37          0.603        0.607
  YS02001619           JUNCTION        0.73          0.040        0.570
  YS02001629           JUNCTION        0.73          0.040        0.430
  YS02001641           JUNCTION        4.05          0.531        0.569
  YS02001644           JUNCTION        4.07          0.536        0.384
  YS02001652           JUNCTION        3.16          0.341        0.789
  YS02001655           JUNCTION        1.69          0.118        1.082
  YS02001622           JUNCTION        1.23          0.065        0.555
  YS02001633           JUNCTION        3.90          0.495        0.565
  YS02001649           JUNCTION        4.26          0.577        0.473
  YS02001757           JUNCTION        4.82          0.706        0.504
  YS02001625           JUNCTION        3.28          0.365        0.415
  YS02163301           JUNCTION        3.70          0.452        0.578
  YS02163601           JUNCTION        4.23          0.570        0.510
  YS02164001           JUNCTION        3.97          0.510        0.590
  YS02001647           JUNCTION        3.24          0.358        0.542
  
  
  *********************
  Node Flooding Summary
  *********************
  
  Flooding refers to all water that overflows a node, whether it ponds or not.
  --------------------------------------------------------------------------
                                                             Total   Maximum
                                 Maximum   Time of Max       Flood    Ponded
                        Hours       Rate    Occurrence      Volume     Depth
  Node                 Flooded       LPS   days hr:min    10^6 ltr    Meters
  --------------------------------------------------------------------------
  WS02006256              1.01    978.40      0  00:00       0.846     0.000
  
  
  **********************
  Storage Volume Summary
  **********************
  
  --------------------------------------------------------------------------------------------------
                         Average     Avg  Evap Exfil       Maximum     Max    Time of Max    Maximum
                          Volume    Pcnt  Pcnt  Pcnt        Volume    Pcnt     Occurrence    Outflow
  Storage Unit           1000 m3    Full  Loss  Loss       1000 m3    Full    days hr:min        LPS
  --------------------------------------------------------------------------------------------------
  JK-storage               0.040      14     0     0         0.234      80       0  02:42     983.00
  CC-storage               1.386       9     0     0         2.690      17       0  07:12     399.43
  XR-storage               0.280      30     0     0         0.669      72       0  06:55     380.00
  
  
  ***********************
  Outfall Loading Summary
  ***********************
  
  ---------------------------------------------------------------------------------------------------------------------------------
                         Flow       Avg       Max       Total         Total         Total         Total         Total         Total
                         Freq      Flow      Flow      Volume           COD            SS            TN            TP         NH4-N
  Outfall Node           Pcnt       LPS       LPS    10^6 ltr            kg            kg            kg            kg            kg
  ---------------------------------------------------------------------------------------------------------------------------------
  WSC                   99.96    410.43    733.83      10.630      1586.234      2543.612       145.675        18.093        90.738
  ---------------------------------------------------------------------------------------------------------------------------------
  System                99.96    410.43    733.83      10.630      1586.234      2543.612       145.675        18.093        90.738
  
  
  ********************
  Link Flow Summary
  ********************
  
  -----------------------------------------------------------------------------
                                 Maximum  Time of Max   Maximum    Max/    Max/
                                  |Flow|   Occurrence   |Veloc|    Full    Full
  Link                 Type          LPS  days hr:min     m/sec    Flow   Depth
  -----------------------------------------------------------------------------
  WS02003066WSF200     CONDUIT    335.92     0  07:34      2.56    0.06    0.17
  WS02006287WS02006284 CONDUIT    141.35     0  02:15      1.42    0.07    0.18
  WS02006284WS02006280 CONDUIT    141.44     0  02:16      1.67    0.06    0.16
  WS02006280WS02006229 CONDUIT    141.44     0  02:16      2.68    0.03    0.12
  WS02006229WS02006228 CONDUIT    392.65     0  07:25      0.96    1.30    0.99
  WS02006256WS02006235 CONDUIT    288.60     0  00:00      4.23    3.05    1.00
  WS02006253WS02006251 CONDUIT     28.92     0  07:11      0.47    0.09    0.84
  WS02006252WS02006251 CONDUIT    399.70     0  07:20      3.18    1.47    1.00
  WS02006251WS02006249 CONDUIT    375.76     0  07:20      1.13    1.08    0.82
  WS02006249WS02006248 CONDUIT    369.72     0  07:20      1.19    2.03    0.77
  WS02006248WS02006247 CONDUIT    364.35     0  07:21      1.16    0.79    0.78
  WS02006247WS02006245 CONDUIT    358.12     0  07:21      1.13    2.84    0.80
  WS02006245WS02006243 CONDUIT    351.64     0  07:21      1.15    1.04    0.80
  WS02006243WS02006242 CONDUIT    338.60     0  07:21      1.01    0.72    0.89
  WS02006242WS02006240 CONDUIT    324.93     0  07:22      0.91    1.29    0.94
  WS02006240WS02006239 CONDUIT    309.22     0  07:22      0.89    0.97    0.91
  WS02006239WS02006238 CONDUIT    298.25     0  07:22      0.88    0.95    0.99
  WS02006238WS02006235 CONDUIT    294.73     0  07:22      1.46    0.66    0.99
  WS02006235WS02006234 CONDUIT    383.54     0  07:23      1.09    4.05    0.93
  WS02006234WS02006232 CONDUIT    382.10     0  07:24      1.39    0.77    0.96
  WS02006232WS02006231 CONDUIT    381.60     0  07:24      1.06    0.80    0.89
  WS02006231WS02006230 CONDUIT    377.87     0  07:23      1.38    5.73    0.71
  WS02006230WS02006229 CONDUIT    383.59     0  07:25      1.00    8.54    1.00
  WS02006228WS02006109 CONDUIT    391.96     0  07:25      0.79    1.71    1.00
  WS02006116WS02004401 CONDUIT    364.42     0  07:29      0.68    0.50    0.69
  WS02006115WS02006116 CONDUIT    370.82     0  07:27      0.85    0.48    0.61
  WS02006113WS02006111 CONDUIT    400.76     0  07:26      2.21    0.48    0.39
  WS02006112WS02006115 CONDUIT    384.66     0  07:26      0.67    0.23    0.73
  WS02006111WS02006112 CONDUIT    393.20     0  07:26      1.14    0.19    0.65
  WS02006110WS02006113 CONDUIT    392.59     0  07:26      0.99    0.36    0.74
  WS02006109WS02006110 CONDUIT    393.02     0  07:25      0.81    0.76    0.93
  WS02004411WS02004412 CONDUIT    339.79     0  07:33      0.76    0.48    0.56
  WS02004401WS02004402 CONDUIT    360.36     0  07:29      0.61    0.43    0.72
  WS02004413WS02003067 CONDUIT    335.85     0  07:34      0.86    0.14    0.50
  WS02004412WS02004413 CONDUIT    337.06     0  07:34      0.62    0.23    0.65
  WS02004410WS02004411 CONDUIT    343.77     0  07:32      0.80    0.47    0.54
  WS02004409WS02004410 CONDUIT    348.79     0  07:32      0.88    0.45    0.52
  WS02004407WS02004409 CONDUIT    354.17     0  07:31      1.36    0.13    0.37
  WS02004406WS02004407 CONDUIT    354.30     0  07:31      0.81    0.16    0.54
  WS02004405WS02004406 CONDUIT    354.54     0  07:31      0.50    0.70    0.84
  WS02004404WS02004405 CONDUIT    355.39     0  07:30      0.51    3.48    0.84
  WS02004403WS02004404 CONDUIT    355.96     0  07:30      0.53    0.26    0.80
  WS02004402WS02004403 CONDUIT    357.80     0  07:30      0.57    0.51    0.75
  WS02004139WS02001211 CONDUIT    381.31     0  07:44      0.90    0.48    0.58
  WS02004138WS02004139 CONDUIT    396.19     0  00:00      3.65    0.08    0.43
  WS02003067WS02003066 CONDUIT    335.95     0  07:34      0.93    0.11    0.36
  WS02001213WS02003059 CONDUIT    393.18     0  07:44      0.88    0.65    0.73
  WS02001212WS02001213 CONDUIT    391.08     0  07:45      1.32    0.60    0.44
  WS02001211WS02001212 CONDUIT    389.86     0  07:45      0.78    0.30    0.63
  WS02003072WS02003073 CONDUIT    732.00     0  03:12      1.58    1.58    0.43
  WS02003069WS02003072 CONDUIT    732.00     0  03:12      1.50    0.35    0.45
  WS02003060WS02003069 CONDUIT    731.69     0  03:11      1.76    0.29    0.40
  WS02003059WS02003060 CONDUIT    396.19     0  07:44      0.95    0.26    0.60
  HS02004901HS02004770 CONDUIT      6.87     0  02:12      0.04    0.03    0.28
  HS02004876HS02004881 CONDUIT     22.94     0  02:15      0.42    0.24    0.08
  HS02004870HS02004876 CONDUIT     18.14     0  02:15      0.30    0.01    0.09
  HS02004842HS02004848 CONDUIT      3.94     0  02:25      0.02    0.00    0.26
  HS02004837HS02004842 CONDUIT      4.48     0  00:03      0.42    0.00    0.28
  HS02004830HS02004837 CONDUIT     18.62     0  02:13      0.40    0.02    0.07
  HS02004824HS02004830 CONDUIT     18.76     0  02:14      0.44    0.02    0.06
  HS02004817HS02004824 CONDUIT     28.23     0  02:16      0.17    0.01    0.38
  HS02004770HS02004777 CONDUIT     35.37     0  02:11      0.18    0.06    0.29
  HS02004799HS02004480 CONDUIT     87.80     0  02:14      0.49    0.11    0.26
  HS02004792HS02004799 CONDUIT     80.28     0  02:13      0.56    0.05    0.20
  HS02004788HS02004792 CONDUIT     46.72     0  02:14      0.72    0.03    0.09
  HS02004785HS02004788 CONDUIT     34.76     0  02:15      0.43    0.26    0.12
  HS02004777HS02004785 CONDUIT     34.77     0  02:13      0.21    0.04    0.23
  HS02004480HS02004478 CONDUIT    103.50     0  02:14      0.82    0.44    0.18
  HS02004479HS02004480 CONDUIT     16.15     0  02:16      0.15    0.02    0.26
  HS02004862HS02004870 CONDUIT     13.10     0  02:16      0.39    0.01    0.05
  HS02004848HS02004852 CONDUIT      4.99     0  02:15      0.26    0.01    0.03
  HS02004856HS02004862 CONDUIT      8.69     0  02:16      0.29    0.01    0.04
  HS02004852HS02004856 CONDUIT      4.95     0  02:16      0.09    0.01    0.08
  HS02004802HS02004478 CONDUIT     38.42     0  02:18      0.25    0.03    0.22
  HS02004478WS02006287 CONDUIT    141.37     0  02:15      1.11    0.04    0.14
  HS02004817HS02004807 CONDUIT     29.09     0  02:19      0.09    0.02    0.48
  HS02004807HS02004802 CONDUIT     38.22     0  02:17      0.21    0.07    0.26
  YS02001759YS02001757 CONDUIT    116.21     0  02:51      0.15    0.08    1.00
  YS02001762YS02001759 CONDUIT     78.51     0  02:59      0.17    0.09    1.00
  YS02001765YS02001762 CONDUIT     74.22     0  03:00      0.23    0.07    1.00
  YS02001770YS02001767 CONDUIT     78.40     0  03:52      0.30    0.31    1.00
  YS02001774YS02001770 CONDUIT     52.93     0  03:52      0.12    0.03    1.00
  YS02001779YS02001774 CONDUIT     51.49     0  03:52      0.08    0.03    1.00
  YS02001649YS02001757 CONDUIT    166.73     0  02:46      0.22    0.10    1.00
  YS02001767YS02001765 CONDUIT     77.49     0  02:59      0.26    0.10    1.00
  YS02006561YS02001783 CONDUIT    190.82     0  02:46      1.56    0.10    0.29
  YS02001783YS02001784 CONDUIT    190.82     0  02:47      1.05    0.26    0.39
  YS02001784YS02001785 CONDUIT    191.86     0  02:47      1.09    0.45    0.38
  YS02001788YS02001790 CONDUIT    191.97     0  02:48      1.65    0.14    0.28
  YS02001790YS02001791 CONDUIT    192.12     0  02:48      1.93    0.21    0.26
  YS02001791YS02001793 CONDUIT    201.15     0  02:38      3.79    0.09    0.52
  YS02001910YS02001907 CONDUIT     58.29     0  02:57      0.49    0.03    0.64
  YS02001786YS02001788 CONDUIT    191.90     0  02:47      1.50    0.37    0.30
  YS02001915YS02001910 CONDUIT     58.16     0  02:55      0.44    0.03    0.43
  YS02001918YS02001915 CONDUIT     20.16     0  03:03      0.44    0.01    0.20
  YS02001923YS02001920 CONDUIT     17.30     0  03:02      0.34    0.01    0.12
  YS02001926YS02001923 CONDUIT     17.27     0  03:01      0.40    0.02    0.10
  YS02001929YS02001926 CONDUIT     17.24     0  03:01      0.41    0.01    0.10
  YS02001920YS02001918 CONDUIT     20.17     0  03:02      0.37    0.02    0.12
  YS02001629YS02163301 CONDUIT     41.03     0  04:08      0.09    0.05    1.00
  YS02001619YS02001622 CONDUIT     56.76     0  04:08      0.58    0.08    1.00
  YS02001622YS02001625 CONDUIT     48.22     0  05:22      0.20    0.03    1.00
  YS02001625YS02001629 CONDUIT     66.02     0  04:07      0.19    0.03    1.00
  YS02163301YS02001633 CONDUIT     37.75     0  03:03      0.08    0.04    1.00
  YS02163601YS02164001 CONDUIT     80.19     0  03:52      0.11    0.07    1.00
  YS02164001YS02001641 CONDUIT     76.10     0  03:47      0.11    0.10    1.00
  YS02001641YS02001644 CONDUIT     72.37     0  03:04      0.14    0.23    1.00
  YS02001647YS02001649 CONDUIT    134.41     0  03:52      0.18    0.07    1.00
  YS02006553YS02006556 CONDUIT    129.91     0  02:48      0.21    0.11    0.72
  YS02006556YS02006558 CONDUIT    129.91     0  02:49      0.21    0.10    0.75
  YSB6556YSB1171       CONDUIT      8.77     0  02:17      0.04    0.01    0.52
  YS02001907YS02006553 CONDUIT    129.86     0  02:48      0.18    0.15    0.82
  YS02006558YS02006561 CONDUIT    190.82     0  02:46      2.02    0.42    0.37
  YS02001633YS02163601 CONDUIT     80.75     0  03:52      0.12    0.08    1.00
  YS02001644YS02001647 CONDUIT    113.17     0  02:59      0.19    0.07    1.00
  YS02001745YS02001748 CONDUIT     76.39     0  05:08      1.23    0.03    0.63
  YS02001748YS02001751 CONDUIT    112.59     0  03:44      0.98    0.06    0.95
  YS02001751YS02001754 CONDUIT     75.03     0  02:56      0.90    0.04    1.00
  YS02001754YS02001757 CONDUIT     95.66     0  02:58      0.33    0.04    1.00
  YS02001882YS02001884 CONDUIT      2.66     0  02:06      0.07    0.00    0.36
  YS02001884YS02001887 CONDUIT      7.77     0  02:09      0.05    0.01    0.46
  YS02001890YS02001895 CONDUIT     72.84     0  02:40      0.23    0.03    0.43
  YS02001895YS02001898 CONDUIT     72.76     0  02:40      0.45    0.13    0.29
  YS02001898YS02001901 CONDUIT     72.79     0  02:41      0.28    0.05    0.37
  YS02001901YS02001904 CONDUIT     72.44     0  02:42      0.23    0.11    0.42
  YS02001904YS02001907 CONDUIT     72.60     0  02:44      0.15    0.03    0.58
  YS02001887YS02001890 CONDUIT     73.08     0  02:37      0.18    0.13    0.51
  YS02001652YS02001649 CONDUIT     94.45     0  03:43      0.27    0.05    1.00
  YS02001655YS02001652 CONDUIT     63.21     0  02:59      0.96    0.03    1.00
  YS02001658YS02001655 CONDUIT    108.37     0  03:42      1.13    0.05    0.91
  YS02001661YS02001658 CONDUIT     56.13     0  05:18      1.25    0.02    0.66
  YS02001664YS02001661 CONDUIT     51.60     0  02:37      0.87    0.02    0.30
  YSB1154YSB6556       CONDUIT      8.68     0  02:13      0.19    0.02    0.41
  YSB1174YSB1171       CONDUIT      8.09     0  02:10      0.04    0.01    0.53
  YSB1171HS02004479    CONDUIT     15.99     0  02:16      0.54    0.01    0.40
  HS02004881HS02006253 CONDUIT     25.73     0  02:15      1.41    0.01    0.19
  YS02001793JiankangQianchi CONDUIT    755.37     0  02:45     11.53    0.06    0.84
  YS02001757CaochengTiaoxuchi CONDUIT    288.48     0  02:50      0.67    0.13    0.98
  WSF200WS02003060     CONDUIT    335.86     0  07:35      1.69    0.07    0.28
  1                    CONDUIT    733.83     0  03:13      3.06    0.26    0.34
  CC-Pump-1            PUMP       199.71     0  07:20              1.00
  CC-Pump-2            PUMP       199.71     0  07:20              1.00
  JK-Pump-1            PUMP       300.00     0  00:00              1.00
  JK-Pump-2            PUMP       683.00     0  00:00              1.00
  XR-Pump-1            PUMP        95.00     0  00:00              1.00
  XR-Pump-2            PUMP        95.00     0  00:00              1.00
  XR-Pump-3            PUMP        95.00     0  00:00              1.00
  XR-Pump-4            PUMP        95.00     0  00:00              1.00
  
  
  ***************************
  Flow Classification Summary
  ***************************
  
  -------------------------------------------------------------------------------------
                      Adjusted    ---------- Fraction of Time in Flow Class ---------- 
                       /Actual         Up    Down  Sub   Sup   Up    Down  Norm  Inlet 
  Conduit               Length    Dry  Dry   Dry   Crit  Crit  Crit  Crit  Ltd   Ctrl  
  -------------------------------------------------------------------------------------
  WS02003066WSF200        1.00   0.05  0.14  0.00  0.00  0.80  0.00  0.00  0.70  0.00
  WS02006287WS02006284    1.00   0.07  0.05  0.00  0.66  0.22  0.00  0.00  0.79  0.00
  WS02006284WS02006280    1.00   0.09  0.00  0.00  0.00  0.00  0.00  0.91  0.00  0.00
  WS02006280WS02006229    1.00   0.09  0.00  0.00  0.00  0.00  0.00  0.91  0.00  0.00
  WS02006229WS02006228    1.00   0.00  0.00  0.00  0.99  0.00  0.00  0.01  0.00  0.00
  WS02006256WS02006235    1.00   0.00  0.00  0.00  1.00  0.00  0.00  0.00  0.00  0.00
  WS02006253WS02006251    1.00   0.03  0.04  0.00  0.92  0.00  0.01  0.00  0.00  0.00
  WS02006252WS02006251    1.00   0.81  0.00  0.00  0.00  0.00  0.19  0.00  0.00  0.00
  WS02006251WS02006249    1.00   0.00  0.00  0.00  1.00  0.00  0.00  0.00  0.93  0.00
  WS02006249WS02006248    1.00   0.00  0.01  0.00  0.31  0.00  0.67  0.00  0.00  0.00
  WS02006248WS02006247    1.00   0.02  0.00  0.00  0.94  0.00  0.00  0.04  0.68  0.00
  WS02006247WS02006245    1.00   0.01  0.00  0.00  0.90  0.00  0.00  0.08  0.00  0.00
  WS02006245WS02006243    1.00   0.01  0.00  0.00  0.81  0.00  0.00  0.18  0.08  0.00
  WS02006243WS02006242    1.00   0.01  0.00  0.00  0.99  0.00  0.00  0.00  0.60  0.00
  WS02006242WS02006240    1.00   0.00  0.00  0.00  1.00  0.00  0.00  0.00  0.00  0.00
  WS02006240WS02006239    1.00   0.00  0.00  0.00  0.74  0.00  0.00  0.26  0.03  0.00
  WS02006239WS02006238    1.00   0.00  0.00  0.00  1.00  0.00  0.00  0.00  0.31  0.00
  WS02006238WS02006235    1.00   0.00  0.00  0.00  1.00  0.00  0.00  0.00  0.00  0.00
  WS02006235WS02006234    1.00   0.00  0.00  0.00  0.80  0.00  0.20  0.00  0.00  0.00
  WS02006234WS02006232    1.00   0.00  0.00  0.00  1.00  0.00  0.00  0.00  0.22  0.00
  WS02006232WS02006231    1.00   0.00  0.00  0.00  0.99  0.00  0.01  0.00  0.00  0.00
  WS02006231WS02006230    1.00   0.00  0.00  0.00  0.16  0.00  0.84  0.00  0.00  0.00
  WS02006230WS02006229    1.00   0.00  0.00  0.00  0.99  0.00  0.00  0.01  0.02  0.00
  WS02006228WS02006109    1.00   0.00  0.00  0.00  1.00  0.00  0.00  0.00  0.01  0.00
  WS02006116WS02004401    1.00   0.02  0.00  0.00  0.98  0.00  0.00  0.00  0.01  0.00
  WS02006115WS02006116    1.00   0.02  0.00  0.00  0.93  0.00  0.00  0.04  0.01  0.00
  WS02006113WS02006111    1.00   0.01  0.00  0.00  0.00  0.99  0.00  0.00  0.27  0.00
  WS02006112WS02006115    1.00   0.02  0.01  0.00  0.97  0.00  0.00  0.00  0.00  0.00
  WS02006111WS02006112    1.00   0.02  0.00  0.00  0.98  0.00  0.00  0.00  0.98  0.00
  WS02006110WS02006113    1.00   0.01  0.00  0.00  0.99  0.00  0.00  0.00  0.00  0.00
  WS02006109WS02006110    1.00   0.00  0.01  0.00  0.99  0.00  0.00  0.00  0.00  0.00
  WS02004411WS02004412    1.00   0.13  0.00  0.00  0.87  0.00  0.00  0.00  0.00  0.00
  WS02004401WS02004402    1.00   0.03  0.00  0.00  0.97  0.00  0.00  0.00  0.01  0.00
  WS02004413WS02003067    1.00   0.14  0.04  0.00  0.00  0.00  0.82  0.00  0.00  0.00
  WS02004412WS02004413    1.00   0.14  0.00  0.00  0.86  0.00  0.00  0.00  0.02  0.00
  WS02004410WS02004411    1.00   0.13  0.00  0.00  0.87  0.00  0.00  0.00  0.00  0.00
  WS02004409WS02004410    1.00   0.13  0.00  0.00  0.87  0.00  0.00  0.00  0.00  0.00
  WS02004407WS02004409    1.00   0.13  0.00  0.00  0.86  0.01  0.00  0.00  0.78  0.00
  WS02004406WS02004407    1.00   0.00  0.13  0.00  0.87  0.00  0.00  0.00  0.00  0.00
  WS02004405WS02004406    1.00   0.00  0.00  0.00  1.00  0.00  0.00  0.00  0.02  0.00
  WS02004404WS02004405    1.00   0.00  0.00  0.00  1.00  0.00  0.00  0.00  0.00  0.00
  WS02004403WS02004404    1.00   0.00  0.03  0.00  0.97  0.00  0.00  0.00  0.02  0.00
  WS02004402WS02004403    1.00   0.03  0.00  0.00  0.97  0.00  0.00  0.00  0.00  0.00
  WS02004139WS02001211    1.00   0.00  0.00  0.00  1.00  0.00  0.00  0.00  0.00  0.00
  WS02004138WS02004139    1.00   0.00  0.03  0.00  0.97  0.01  0.00  0.00  1.00  0.00
  WS02003067WS02003066    1.00   0.18  0.01  0.00  0.81  0.00  0.00  0.00  0.00  0.00
  WS02001213WS02003059    1.00   0.00  0.00  0.00  0.99  0.00  0.00  0.00  0.00  0.00
  WS02001212WS02001213    1.00   0.00  0.00  0.00  0.58  0.00  0.41  0.00  0.00  0.00
  WS02001211WS02001212    1.00   0.00  0.00  0.00  1.00  0.00  0.00  0.00  0.00  0.00
  WS02003072WS02003073    1.00   0.00  0.00  0.00  0.00  0.00  0.00  1.00  0.00  0.00
  WS02003069WS02003072    1.00   0.00  0.00  0.00  0.99  0.01  0.00  0.00  0.43  0.00
  WS02003060WS02003069    1.00   0.00  0.00  0.00  0.96  0.04  0.00  0.00  0.32  0.00
  WS02003059WS02003060    1.00   0.00  0.00  0.00  1.00  0.00  0.00  0.00  0.00  0.00
  HS02004901HS02004770    1.00   0.08  0.00  0.00  0.91  0.00  0.00  0.00  0.02  0.00
  HS02004876HS02004881    1.00   0.02  0.00  0.00  0.98  0.00  0.00  0.00  0.00  0.00
  HS02004870HS02004876    1.00   0.01  0.00  0.00  0.99  0.00  0.00  0.00  0.95  0.00
  HS02004842HS02004848    1.00   0.00  0.09  0.00  0.91  0.00  0.00  0.00  0.69  0.00
  HS02004837HS02004842    1.00   0.00  0.00  0.00  0.99  0.01  0.00  0.00  0.11  0.00
  HS02004830HS02004837    1.00   0.00  0.00  0.00  1.00  0.00  0.00  0.00  0.99  0.00
  HS02004824HS02004830    1.00   0.00  0.00  0.00  1.00  0.00  0.00  0.00  0.00  0.00
  HS02004817HS02004824    1.00   0.00  0.00  0.00  1.00  0.00  0.00  0.00  1.00  0.00
  HS02004770HS02004777    1.00   0.00  0.09  0.00  0.91  0.00  0.00  0.00  0.07  0.00
  HS02004799HS02004480    1.00   0.00  0.02  0.00  0.88  0.00  0.10  0.00  0.00  0.00
  HS02004792HS02004799    1.00   0.00  0.00  0.00  0.99  0.01  0.00  0.00  0.98  0.00
  HS02004788HS02004792    1.00   0.00  0.00  0.00  0.99  0.01  0.00  0.00  0.98  0.00
  HS02004785HS02004788    1.00   0.00  0.00  0.00  1.00  0.00  0.00  0.00  0.00  0.00
  HS02004777HS02004785    1.00   0.00  0.00  0.00  1.00  0.00  0.00  0.00  0.20  0.00
  HS02004480HS02004478    1.00   0.10  0.00  0.00  0.67  0.00  0.00  0.23  0.00  0.00
  HS02004479HS02004480    1.00   0.03  0.00  0.00  0.97  0.00  0.00  0.00  0.16  0.00
  HS02004862HS02004870    1.00   0.00  0.00  0.00  1.00  0.00  0.00  0.00  0.06  0.00
  HS02004848HS02004852    1.00   0.09  0.00  0.00  0.91  0.00  0.00  0.00  0.71  0.00
  HS02004856HS02004862    1.00   0.00  0.16  0.00  0.84  0.00  0.00  0.00  0.75  0.00
  HS02004852HS02004856    1.00   0.08  0.02  0.00  0.89  0.00  0.00  0.00  0.82  0.00
  HS02004802HS02004478    1.00   0.09  0.02  0.00  0.89  0.00  0.00  0.00  0.00  0.00
  HS02004478WS02006287    1.00   0.12  0.00  0.00  0.88  0.00  0.00  0.00  0.81  0.00
  HS02004817HS02004807    1.00   0.00  0.09  0.00  0.91  0.00  0.00  0.00  0.00  0.00
  HS02004807HS02004802    1.00   0.09  0.00  0.00  0.91  0.00  0.00  0.01  0.01  0.00
  YS02001759YS02001757    1.00   0.00  0.00  0.00  1.00  0.00  0.00  0.00  0.18  0.00
  YS02001762YS02001759    1.00   0.00  0.00  0.00  1.00  0.00  0.00  0.00  0.04  0.00
  YS02001765YS02001762    1.00   0.00  0.00  0.00  1.00  0.00  0.00  0.00  0.22  0.00
  YS02001770YS02001767    1.00   0.00  0.00  0.00  1.00  0.00  0.00  0.00  0.00  0.00
  YS02001774YS02001770    1.00   0.00  0.11  0.00  0.89  0.00  0.00  0.00  0.06  0.00
  YS02001779YS02001774    1.00   0.00  0.00  0.00  1.00  0.00  0.00  0.00  0.26  0.00
  YS02001649YS02001757    1.00   0.00  0.00  0.00  1.00  0.00  0.00  0.00  0.19  0.00
  YS02001767YS02001765    1.00   0.00  0.00  0.00  1.00  0.00  0.00  0.00  0.01  0.00
  YS02006561YS02001783    1.00   0.16  0.00  0.00  0.00  0.84  0.00  0.00  0.74  0.00
  YS02001783YS02001784    1.00   0.00  0.16  0.00  0.84  0.00  0.00  0.00  0.07  0.00
  YS02001784YS02001785    1.00   0.00  0.00  0.00  1.00  0.00  0.00  0.00  0.25  0.00
  YS02001788YS02001790    1.00   0.00  0.00  0.00  0.17  0.83  0.00  0.00  0.99  0.00
  YS02001790YS02001791    1.00   0.00  0.00  0.00  0.01  0.99  0.00  0.00  0.40  0.00
  YS02001791YS02001793    1.00   0.00  0.00  0.00  0.01  0.99  0.00  0.00  0.02  0.00
  YS02001910YS02001907    1.00   0.00  0.00  0.00  0.98  0.00  0.00  0.02  0.13  0.00
  YS02001786YS02001788    1.00   0.00  0.00  0.00  0.18  0.82  0.00  0.00  0.00  0.00
  YS02001915YS02001910    1.00   0.00  0.00  0.00  0.99  0.01  0.00  0.00  0.24  0.00
  YS02001918YS02001915    1.00   0.00  0.01  0.00  0.98  0.01  0.00  0.00  0.82  0.00
  YS02001923YS02001920    1.00   0.00  0.00  0.00  1.00  0.00  0.00  0.00  1.00  0.00
  YS02001926YS02001923    1.00   0.00  0.05  0.00  0.00  0.00  0.95  0.00  0.00  0.00
  YS02001929YS02001926    1.00   0.00  0.08  0.00  0.92  0.00  0.00  0.00  0.86  0.00
  YS02001920YS02001918    1.00   0.00  0.01  0.00  0.99  0.00  0.00  0.00  0.00  0.00
  YS02001629YS02163301    1.00   0.13  0.01  0.00  0.85  0.00  0.00  0.00  0.00  0.00
  YS02001619YS02001622    1.00   0.08  0.00  0.00  0.92  0.00  0.00  0.00  0.00  0.00
  YS02001622YS02001625    1.00   0.09  0.00  0.00  0.91  0.00  0.00  0.00  0.12  0.00
  YS02001625YS02001629    1.00   0.09  0.08  0.00  0.79  0.00  0.04  0.00  0.00  0.00
  YS02163301YS02001633    1.00   0.00  0.13  0.00  0.87  0.00  0.00  0.00  0.00  0.00
  YS02163601YS02164001    1.00   0.00  0.05  0.00  0.95  0.00  0.00  0.00  0.00  0.00
  YS02164001YS02001641    1.00   0.01  0.05  0.00  0.95  0.00  0.00  0.00  0.07  0.00
  YS02001641YS02001644    1.00   0.00  0.01  0.00  0.99  0.00  0.00  0.00  0.00  0.00
  YS02001647YS02001649    1.00   0.00  0.16  0.00  0.84  0.00  0.00  0.00  0.01  0.00
  YS02006553YS02006556    1.00   0.01  0.00  0.00  0.99  0.00  0.00  0.00  0.03  0.00
  YS02006556YS02006558    1.00   0.00  0.00  0.00  1.00  0.00  0.00  0.00  0.00  0.00
  YSB6556YSB1171          1.00   0.03  0.05  0.00  0.92  0.00  0.00  0.00  0.00  0.00
  YS02001907YS02006553    1.00   0.00  0.02  0.00  0.98  0.00  0.00  0.00  0.00  0.00
  YS02006558YS02006561    1.00   0.16  0.00  0.00  0.00  0.84  0.00  0.00  0.73  0.00
  YS02001633YS02163601    1.00   0.00  0.01  0.00  0.99  0.00  0.00  0.00  0.20  0.00
  YS02001644YS02001647    1.00   0.00  0.16  0.00  0.84  0.00  0.00  0.00  0.00  0.00
  YS02001745YS02001748    1.00   0.00  0.00  0.00  0.66  0.04  0.00  0.30  0.20  0.00
  YS02001748YS02001751    1.00   0.00  0.00  0.00  0.92  0.08  0.00  0.00  0.25  0.00
  YS02001751YS02001754    1.00   0.00  0.00  0.00  0.82  0.00  0.00  0.18  0.02  0.00
  YS02001754YS02001757    1.00   0.00  0.00  0.00  0.99  0.01  0.00  0.00  0.26  0.00
  YS02001882YS02001884    1.00   0.13  0.01  0.00  0.86  0.00  0.00  0.00  0.00  0.00
  YS02001884YS02001887    1.00   0.04  0.03  0.00  0.93  0.00  0.00  0.00  0.00  0.00
  YS02001890YS02001895    1.00   0.00  0.14  0.00  0.86  0.00  0.00  0.00  0.00  0.00
  YS02001895YS02001898    1.00   0.14  0.00  0.00  0.83  0.00  0.03  0.00  0.00  0.00
  YS02001898YS02001901    1.00   0.14  0.01  0.00  0.85  0.00  0.00  0.00  0.02  0.00
  YS02001901YS02001904    1.00   0.14  0.00  0.00  0.86  0.00  0.00  0.00  0.00  0.00
  YS02001904YS02001907    1.00   0.00  0.13  0.00  0.86  0.00  0.00  0.00  0.00  0.00
  YS02001887YS02001890    1.00   0.00  0.00  0.00  0.98  0.00  0.02  0.00  0.00  0.00
  YS02001652YS02001649    1.00   0.00  0.00  0.00  1.00  0.00  0.00  0.00  0.25  0.00
  YS02001655YS02001652    1.00   0.00  0.00  0.00  0.82  0.00  0.00  0.18  0.02  0.00
  YS02001658YS02001655    1.00   0.00  0.12  0.00  0.79  0.09  0.00  0.00  0.17  0.00
  YS02001661YS02001658    1.00   0.12  0.00  0.00  0.66  0.22  0.00  0.00  0.28  0.00
  YS02001664YS02001661    1.00   0.08  0.00  0.00  0.92  0.00  0.00  0.00  0.85  0.00
  YSB1154YSB6556          1.00   0.08  0.00  0.00  0.92  0.00  0.00  0.00  0.02  0.00
  YSB1174YSB1171          1.00   0.03  0.03  0.00  0.94  0.00  0.00  0.00  0.00  0.00
  YSB1171HS02004479       1.00   0.03  0.00  0.00  0.96  0.00  0.00  0.01  0.13  0.00
  HS02004881HS02006253    1.00   0.04  0.00  0.00  0.12  0.00  0.00  0.85  0.03  0.00
  YS02001793JiankangQianchi    1.00   0.00  0.00  0.00  0.51  0.49  0.00  0.00  0.65  0.00
  YS02001757CaochengTiaoxuchi    1.00   0.00  0.21  0.00  0.79  0.00  0.00  0.00  0.00  0.00
  WSF200WS02003060        1.00   0.00  0.05  0.00  0.81  0.14  0.00  0.00  0.79  0.00
  1                       1.00   0.00  0.00  0.00  0.00  1.00  0.00  0.00  0.55  0.00
  
  
  *************************
  Conduit Surcharge Summary
  *************************
  
  ----------------------------------------------------------------------------
                                                           Hours        Hours 
                         --------- Hours Full --------   Above Full   Capacity
  Conduit                Both Ends  Upstream  Dnstream   Normal Flow   Limited
  ----------------------------------------------------------------------------
  WS02006229WS02006228        0.01      0.01      0.01      0.49         0.01
  WS02006256WS02006235        3.13      3.13      5.48      2.62         0.01
  WS02006252WS02006251        0.05      0.05      0.13      0.11         0.01
  WS02006251WS02006249        0.01      0.01      0.01      0.04         0.01
  WS02006249WS02006248        0.01      0.01      0.01      0.18         0.01
  WS02006247WS02006245        0.01      0.01      0.01      0.23         0.01
  WS02006245WS02006243        0.01      0.01      0.01      0.02         0.01
  WS02006242WS02006240        0.01      0.01      0.01      0.11         0.01
  WS02006238WS02006235        0.01      0.01      0.06      0.01         0.01
  WS02006235WS02006234        0.01      0.01      0.01      2.99         0.01
  WS02006234WS02006232        0.01      0.01      0.06      0.01         0.01
  WS02006232WS02006231        0.01      0.01      0.06      0.01         0.01
  WS02006231WS02006230        0.01      0.01      0.01      3.25         0.01
  WS02006230WS02006229        0.11      0.31      0.11      3.67         0.11
  WS02006228WS02006109        0.01      0.07      0.01      1.28         0.01
  WS02006111WS02006112        0.01      0.01      0.46      0.01         0.01
  WS02006110WS02006113        0.01      0.01      0.04      0.01         0.01
  WS02006109WS02006110        0.01      0.01      0.07      0.01         0.01
  WS02004404WS02004405        0.01      0.01      0.01      3.92         0.01
  WS02003072WS02003073        0.01      0.01      0.01      2.85         0.01
  YS02001759YS02001757        4.36      4.36      4.82      0.01         0.01
  YS02001762YS02001759        4.22      4.22      4.36      0.01         0.01
  YS02001765YS02001762        3.98      3.98      4.22      0.01         0.01
  YS02001770YS02001767        3.81      3.81      3.84      0.01         0.14
  YS02001774YS02001770        3.66      3.66      4.12      0.01         0.01
  YS02001779YS02001774        2.72      2.72      4.12      0.01         0.01
  YS02001649YS02001757        4.26      4.26      4.82      0.01         0.01
  YS02001767YS02001765        3.84      3.84      3.98      0.01         0.01
  YS02001629YS02163301        3.55      3.55      3.70      0.01         0.01
  YS02001619YS02001622        0.73      0.73      1.23      0.01         0.01
  YS02001622YS02001625        1.23      1.23      3.28      0.01         0.01
  YS02001625YS02001629        0.73      0.73      3.28      0.01         0.01
  YS02163301YS02001633        3.70      3.70      3.99      0.01         0.01
  YS02163601YS02164001        3.97      3.97      4.23      0.01         0.01
  YS02164001YS02001641        3.97      3.97      4.05      0.01         0.01
  YS02001641YS02001644        4.05      4.05      4.07      0.01         0.13
  YS02001647YS02001649        3.24      3.24      4.26      0.01         0.01
  YS02001633YS02163601        3.90      3.90      4.23      0.01         0.01
  YS02001644YS02001647        3.24      3.24      4.07      0.01         0.01
  YS02001748YS02001751        0.01      0.01      1.45      0.01         0.01
  YS02001751YS02001754        1.45      1.45      2.97      0.01         0.01
  YS02001754YS02001757        3.25      3.25      4.82      0.01         0.01
  YS02001652YS02001649        3.32      3.32      4.26      0.01         0.01
  YS02001655YS02001652        1.69      1.69      3.15      0.01         0.01
  YS02001658YS02001655        0.01      0.01      1.69      0.01         0.01
  YS02001793JiankangQianchi        0.01      0.01      2.39      0.01         0.01
  YS02001757CaochengTiaoxuchi        0.01      0.01      4.82      0.01         0.01
  
  
  ***************
  Pumping Summary
  ***************
  
  ---------------------------------------------------------------------------------------------------------
                                                  Min       Avg       Max     Total     Power    % Time Off
                        Percent   Number of      Flow      Flow      Flow    Volume     Usage    Pump Curve
  Pump                 Utilized   Start-Ups       LPS       LPS       LPS  10^6 ltr     Kw-hr    Low   High
  ---------------------------------------------------------------------------------------------------------
  CC-Pump-1                4.25           1      0.00    106.77    199.71     0.120      0.24    0.0    0.0
  CC-Pump-2                4.25           1      0.00    106.77    199.71     0.120      0.24    0.0    0.0
  JK-Pump-1               44.68           5      0.00    102.04    300.00     1.385     26.05    0.0    0.0
  JK-Pump-2               38.30           5      0.00    121.46    683.00     1.448     28.29    0.0   95.4
  XR-Pump-1               82.97           5      0.00     86.11     95.00     1.995     40.24    0.0    0.0
  XR-Pump-2               82.97           5      0.00     84.71     95.00     1.938     38.99    0.0    0.0
  XR-Pump-3               70.21           6      0.00     83.51     95.00     1.596     31.06    0.0    0.0
  XR-Pump-4               70.21           6      0.00     83.51     95.00     1.596     31.06    0.0    0.0
  
  
  ***************************
  Link Pollutant Load Summary
  ***************************
  
  ------------------------------------------------------------------------------------------
                                 COD            SS            TN            TP         NH4-N
  Link                            kg            kg            kg            kg            kg
  ------------------------------------------------------------------------------------------
  WS02003066WSF200           146.814       240.248         8.582         0.983         5.134
  WS02006287WS02006284        85.346       141.321         5.840         0.693         3.550
  WS02006284WS02006280        85.774       142.008         5.880         0.698         3.575
  WS02006280WS02006229        85.754       141.976         5.878         0.698         3.574
  WS02006229WS02006228       146.519       239.256         8.170         0.923         4.859
  WS02006256WS02006235        43.242        68.533         1.771         0.180         1.010
  WS02006253WS02006251         8.397        14.579         0.285         0.027         0.155
  WS02006252WS02006251        11.620        18.200         0.346         0.029         0.182
  WS02006251WS02006249        19.682        32.275         0.646         0.059         0.350
  WS02006249WS02006248        19.562        32.075         0.641         0.058         0.346
  WS02006248WS02006247        19.707        32.313         0.647         0.059         0.350
  WS02006247WS02006245        20.182        33.063         0.669         0.061         0.363
  WS02006245WS02006243        20.780        34.017         0.689         0.063         0.373
  WS02006243WS02006242        22.964        37.523         0.771         0.071         0.420
  WS02006242WS02006240        26.526        43.186         0.906         0.085         0.496
  WS02006240WS02006239        29.960        48.587         1.045         0.099         0.575
  WS02006239WS02006238        33.860        54.666         1.217         0.117         0.674
  WS02006238WS02006235        36.202        58.287         1.315         0.127         0.731
  WS02006235WS02006234        61.827        99.001         2.351         0.232         1.320
  WS02006234WS02006232        62.084        99.404         2.367         0.234         1.330
  WS02006232WS02006231        61.772        98.908         2.354         0.232         1.322
  WS02006231WS02006230        61.353        98.237         2.332         0.230         1.310
  WS02006230WS02006229        61.418        98.326         2.341         0.231         1.315
  WS02006228WS02006109       145.949       238.367         8.127         0.918         4.833
  WS02006116WS02004401       152.255       248.736         8.763         0.999         5.232
  WS02006115WS02006116       152.750       249.499         8.780         1.001         5.241
  WS02006113WS02006111       152.840       249.420         8.831         1.007         5.275
  WS02006112WS02006115       153.529       250.747         8.825         1.006         5.268
  WS02006111WS02006112       152.625       249.087         8.820         1.006         5.268
  WS02006110WS02006113       153.161       249.939         8.854         1.010         5.289
  WS02006109WS02006110       154.024       251.324         8.914         1.017         5.325
  WS02004411WS02004412       148.760       243.350         8.687         0.994         5.196
  WS02004401WS02004402       151.487       247.515         8.723         0.995         5.208
  WS02004413WS02003067       147.062       240.617         8.593         0.984         5.140
  WS02004412WS02004413       148.156       242.403         8.661         0.991         5.181
  WS02004410WS02004411       149.168       243.981         8.703         0.996         5.205
  WS02004409WS02004410       149.612       244.681         8.722         0.998         5.216
  WS02004407WS02004409       149.776       244.914         8.722         0.997         5.215
  WS02004406WS02004407       149.619       244.631         8.707         0.995         5.206
  WS02004405WS02004406       150.788       246.496         8.779         1.004         5.249
  WS02004404WS02004405       150.938       246.677         8.753         1.000         5.231
  WS02004403WS02004404       150.252       245.570         8.666         0.989         5.176
  WS02004402WS02004403       150.930       246.650         8.701         0.992         5.196
  WS02004139WS02001211      1309.581      2095.475       124.516        15.537        77.738
  WS02004138WS02004139      1317.374      2107.943       125.253        15.628        78.198
  WS02003067WS02003066       146.902       240.389         8.587         0.983         5.137
  WS02001213WS02003059      1337.972      2140.901       127.269        15.881        79.460
  WS02001212WS02001213      1346.444      2154.456       128.073        15.981        79.962
  WS02001211WS02001212      1351.478      2162.510       128.550        16.041        80.260
  WS02003072WS02003073      1579.855      2533.299       145.043        18.014        90.342
  WS02003069WS02003072      1586.219      2543.504       145.634        18.087        90.710
  WS02003060WS02003069      1589.616      2548.929       145.941        18.125        90.901
  WS02003059WS02003060      1333.283      2133.394       126.824        15.826        79.182
  HS02004901HS02004770         1.505         2.628         0.030         0.002         0.014
  HS02004876HS02004881         6.431        11.219         0.233         0.022         0.128
  HS02004870HS02004876         5.134         8.905         0.215         0.021         0.121
  HS02004842HS02004848         0.830         1.395         0.019         0.001         0.009
  HS02004837HS02004842         5.476         8.816         0.484         0.060         0.300
  HS02004830HS02004837        46.201        74.458         4.185         0.519         2.606
  HS02004824HS02004830        46.952        75.660         4.257         0.528         2.651
  HS02004817HS02004824        50.277        81.404         4.355         0.536         2.703
  HS02004770HS02004777         5.884        10.343         0.133         0.009         0.060
  HS02004799HS02004480        31.441        52.591         1.731         0.196         1.021
  HS02004792HS02004799        30.023        49.886         1.751         0.201         1.040
  HS02004788HS02004792        21.157        35.076         1.431         0.168         0.864
  HS02004785HS02004788         7.373        12.734         0.284         0.028         0.155
  HS02004777HS02004785         6.893        11.964         0.241         0.022         0.128
  HS02004480HS02004478        35.781        60.474         1.761         0.195         1.027
  HS02004479HS02004480         8.890        15.148         0.464         0.053         0.277
  HS02004862HS02004870         3.953         6.707         0.191         0.020         0.110
  HS02004848HS02004852         0.855         1.446         0.020         0.001         0.009
  HS02004856HS02004862         1.770         3.130         0.038         0.002         0.018
  HS02004852HS02004856         0.854         1.444         0.020         0.001         0.009
  HS02004802HS02004478        49.873        81.342         4.108         0.502         2.540
  HS02004478WS02006287        85.524       141.607         5.856         0.695         3.560
  HS02004817HS02004807        48.889        79.185         4.223         0.520         2.620
  HS02004807HS02004802        50.655        82.592         4.183         0.511         2.587
  YS02001759YS02001757        50.311        79.719         1.399         0.112         0.733
  YS02001762YS02001759        28.000        44.906         0.927         0.082         0.504
  YS02001765YS02001762        27.755        44.449         0.951         0.085         0.520
  YS02001770YS02001767        25.243        40.304         0.638         0.044         0.320
  YS02001774YS02001770         5.254         8.476         0.156         0.013         0.083
  YS02001779YS02001774         4.719         7.622         0.230         0.024         0.134
  YS02001649YS02001757        71.058       109.285         1.940         0.160         0.988
  YS02001767YS02001765        27.975        44.751         0.976         0.088         0.535
  YS02006561YS02001783       120.383       190.380         4.447         0.433         2.489
  YS02001783YS02001784       120.322       190.291         4.444         0.433         2.487
  YS02001784YS02001785       127.701       202.111         5.156         0.522         2.932
  YS02001788YS02001790       128.399       203.243         5.229         0.531         2.978
  YS02001790YS02001791       129.398       204.850         5.328         0.543         3.040
  YS02001791YS02001793       129.336       204.752         5.324         0.543         3.038
  YS02001910YS02001907        48.633        76.611         2.680         0.292         1.583
  YS02001786YS02001788       127.955       202.527         5.184         0.525         2.950
  YS02001915YS02001910        48.540        76.404         2.646         0.287         1.560
  YS02001918YS02001915        30.736        47.891         2.212         0.263         1.352
  YS02001923YS02001920        10.720        15.852         0.281         0.022         0.145
  YS02001926YS02001923        10.338        15.235         0.243         0.017         0.121
  YS02001929YS02001926        10.032        14.737         0.210         0.013         0.101
  YS02001920YS02001918        30.671        47.779         2.199         0.262         1.344
  YS02001629YS02163301        10.594        16.355         0.256         0.016         0.118
  YS02001619YS02001622        13.854        21.210         0.336         0.020         0.153
  YS02001622YS02001625        13.190        20.268         0.318         0.019         0.145
  YS02001625YS02001629        12.359        19.061         0.298         0.018         0.137
  YS02163301YS02001633        10.341        15.974         0.251         0.016         0.116
  YS02163601YS02164001        32.731        50.053         0.844         0.065         0.423
  YS02164001YS02001641        32.355        49.474         0.822         0.063         0.411
  YS02001641YS02001644        32.493        49.704         0.813         0.062         0.405
  YS02001647YS02001649        51.981        79.182         1.205         0.088         0.589
  YS02006553YS02006556        90.075       142.302         3.641         0.370         2.077
  YS02006556YS02006558        90.025       142.207         3.607         0.366         2.054
  YSB6556YSB1171               4.060         6.993         0.159         0.017         0.092
  YS02001907YS02006553        90.066       142.287         3.646         0.371         2.081
  YS02006558YS02006561       120.392       190.388         4.448         0.433         2.489
  YS02001633YS02163601        33.214        50.716         0.825         0.062         0.409
  YS02001644YS02001647        52.595        80.029         1.221         0.090         0.597
  YS02001745YS02001748        21.999        34.511         0.689         0.055         0.364
  YS02001748YS02001751        27.089        42.762         1.197         0.119         0.683
  YS02001751YS02001754        24.143        38.162         1.056         0.105         0.602
  YS02001754YS02001757        25.960        41.108         1.212         0.124         0.699
  YS02001882YS02001884         0.304         0.463         0.011         0.001         0.007
  YS02001884YS02001887         1.171         1.829         0.040         0.004         0.022
  YS02001890YS02001895        42.255        66.817         0.984         0.081         0.506
  YS02001895YS02001898        42.139        66.648         0.978         0.080         0.503
  YS02001898YS02001901        42.047        66.522         0.975         0.080         0.501
  YS02001901YS02001904        42.183        66.773         1.000         0.083         0.517
  YS02001904YS02001907        43.121        68.318         1.106         0.096         0.584
  YS02001887YS02001890        43.091        68.110         1.050         0.089         0.547
  YS02001652YS02001649        21.860        34.338         0.796         0.075         0.427
  YS02001655YS02001652        21.726        34.095         0.810         0.077         0.436
  YS02001658YS02001655        21.923        34.242         0.717         0.063         0.370
  YS02001661YS02001658        19.353        29.997         0.452         0.030         0.203
  YS02001664YS02001661        19.368        29.977         0.454         0.030         0.204
  YSB1154YSB6556               3.534         6.156         0.094         0.009         0.051
  YSB1174YSB1171               2.893         5.064         0.114         0.012         0.065
  YSB1171HS02004479            8.754        14.940         0.449         0.052         0.268
  HS02004881HS02006253         7.186        12.598         0.247         0.023         0.135
  YS02001793JiankangQianchi       129.871       205.611         5.374         0.549         3.069
  YS02001757CaochengTiaoxuchi       139.443       218.067         4.126         0.350         2.170
  WSF200WS02003060           147.165       240.852         8.618         0.987         5.156
  1                         1586.234      2543.612       145.675        18.093        90.738
  CC-Pump-1                    5.781         9.053         0.170         0.014         0.090
  CC-Pump-2                    5.781         9.053         0.170         0.014         0.090
  JK-Pump-1                   39.424        62.468         1.584         0.160         0.900
  JK-Pump-2                   42.852        68.277         1.769         0.181         1.011
  XR-Pump-1                  377.875       604.635        35.962         4.488        22.454
  XR-Pump-2                  363.850       582.196        34.616         4.320        21.613
  XR-Pump-3                  289.386       463.055        27.486         3.429        17.158
  XR-Pump-4                  289.386       463.055        27.486         3.429        17.158
  

  Analysis begun on:  Sun Jul 11 14:23:22 2021
  Analysis ended on:  Sun Jul 11 14:23:23 2021
  Total elapsed time: 00:00:01