
  EPA STORM WATER MANAGEMENT MODEL - VERSION 5.1 (Build 5.3.0.dev0)
  --------------------------------------------------------------

  WARNING 04: minimum elevation drop used for Conduit WS02004404WS02004405
  WARNING 03: negative offset ignored for Link YS02001904YS02001907
  
  *********************************************************
  NOTE: The summary statistics displayed in this report are
  based on results found at every computational time step,  
  not just on results from each reporting time step.
  *********************************************************
  
  ****************
  Analysis Options
  ****************
  Flow Units ............... LPS
  Process Models:
    Rainfall/Runoff ........ YES
    RDII ................... NO
    Snowmelt ............... NO
    Groundwater ............ NO
    Flow Routing ........... YES
    Ponding Allowed ........ NO
    Water Quality .......... YES
  Infiltration Method ...... HORTON
  Flow Routing Method ...... DYNWAVE
  Surcharge Method ......... EXTRAN
  Starting Date ............ 08/28/2015 08:00:00
  Ending Date .............. 08/28/2015 15:50:00
  Antecedent Dry Days ...... 8.0
  Report Time Step ......... 00:01:00
  Wet Time Step ............ 00:01:00
  Dry Time Step ............ 00:01:00
  Routing Time Step ........ 5.00 sec
  Variable Time Step ....... YES
  Maximum Trials ........... 8
  Number of Threads ........ 4
  Head Tolerance ........... 0.001500 m
  
  
  **************************        Volume         Depth
  Runoff Quantity Continuity     hectare-m            mm
  **************************     ---------       -------
  Total Precipitation ......         5.556        12.164
  Evaporation Loss .........         0.000         0.000
  Infiltration Loss ........         1.002         2.194
  Surface Runoff ...........         3.688         8.075
  Final Storage ............         0.866         1.897
  Continuity Error (%) .....        -0.019
  
  
  **************************           COD            SS            TN            TP         NH4-N
  Runoff Quality Continuity             kg            kg            kg            kg            kg
  **************************    ----------    ----------    ----------    ----------    ----------
  Initial Buildup ..........     41378.656     70582.865      1804.177       168.684      1032.807
  Surface Buildup ..........        19.275        34.271         2.335         0.213         1.362
  Wet Deposition ...........         0.000         0.000         0.000         0.000         0.000
  Sweeping Removal .........         0.000         0.000         0.000         0.000         0.000
  Infiltration Loss ........        84.023       157.502         1.599         0.111         0.761
  BMP Removal ..............         0.000         0.000         0.000         0.000         0.000
  Surface Runoff ...........      3122.074      5752.154        60.620         4.098        28.771
  Remaining Buildup ........     38190.779     64705.500      1744.271       164.686      1004.628
  Continuity Error (%) .....         0.003         0.003         0.001         0.001         0.001
  
  
  **************************        Volume        Volume
  Flow Routing Continuity        hectare-m      10^6 ltr
  **************************     ---------     ---------
  Dry Weather Inflow .......         0.616         6.165
  Wet Weather Inflow .......         3.687        36.870
  Groundwater Inflow .......         0.000         0.000
  RDII Inflow ..............         0.000         0.000
  External Inflow ..........         0.102         1.024
  External Outflow .........         1.992        19.922
  Flooding Loss ............         1.997        19.970
  Evaporation Loss .........         0.000         0.000
  Exfiltration Loss ........         0.000         0.000
  Initial Stored Volume ....         0.076         0.761
  Final Stored Volume ......         0.621         6.210
  Continuity Error (%) .....        -2.862
  
  
  **************************           COD            SS            TN            TP         NH4-N
  Quality Routing Continuity            kg            kg            kg            kg            kg
  **************************    ----------    ----------    ----------    ----------    ----------
  Dry Weather Inflow .......      1541.201      2465.922       147.955        18.494        92.472
  Wet Weather Inflow .......      3121.206      5750.646        60.602         4.097        28.762
  Groundwater Inflow .......         0.000         0.000         0.000         0.000         0.000
  RDII Inflow ..............         0.000         0.000         0.000         0.000         0.000
  External Inflow ..........       183.418       293.469        17.608         2.201        11.005
  External Outflow .........      2326.187      3973.716       150.639        17.753        91.248
  Flooding Loss ............      1844.132      3385.521        48.734         4.299        25.772
  Exfiltration Loss ........         0.000         0.000         0.000         0.000         0.000
  Mass Reacted .............         0.000         0.000         0.000         0.000         0.000
  Initial Stored Mass ......         0.000         0.000         0.000         0.000         0.000
  Final Stored Mass ........       504.718       855.133        22.821         2.438        13.228
  Continuity Error (%) .....         3.524         3.474         1.756         1.220         1.506
  
  
  *************************
  Highest Continuity Errors
  *************************
  Node HS02004842 (14.53%)
  Node JK-storage (-12.74%)
  Node YS02001884 (11.53%)
  Node YSB1171 (2.74%)
  Node HS02004817 (2.73%)
  
  
  ***************************
  Time-Step Critical Elements
  ***************************
  Link WS02006252WS02006251 (64.79%)
  Link WS02006280WS02006229 (9.99%)
  Link YS02001793JiankangQianchi (5.57%)
  Link WS02006238WS02006235 (5.31%)
  Link WS02004404WS02004405 (2.55%)
  
  
  ********************************
  Highest Flow Instability Indexes
  ********************************
  Link WS02006113WS02006111 (44)
  Link YS02163601YS02164001 (38)
  Link YS02001629YS02163301 (37)
  Link YS02163301YS02001633 (37)
  Link YS02001619YS02001622 (37)
  
  
  *************************
  Routing Time Step Summary
  *************************
  Minimum Time Step           :     0.07 sec
  Average Time Step           :     1.14 sec
  Maximum Time Step           :     5.00 sec
  Percent in Steady State     :    -0.00
  Average Iterations per Step :     4.51
  Percent Not Converging      :    21.42
  
  
  ***************************
  Subcatchment Runoff Summary
  ***************************
  
  ------------------------------------------------------------------------------------------------------------------------------
                            Total      Total      Total      Total     Imperv       Perv      Total       Total     Peak  Runoff
                           Precip      Runon       Evap      Infil     Runoff     Runoff     Runoff      Runoff   Runoff   Coeff
  Subcatchment                 mm         mm         mm         mm         mm         mm         mm    10^6 ltr      LPS
  ------------------------------------------------------------------------------------------------------------------------------
  sub0                      12.16       0.00       0.00       0.65      11.27       0.20      11.47        0.01     1.99   0.943
  sub1                      12.16       0.00       0.00       1.12      10.73       0.22      10.95        0.07    14.96   0.900
  sub2                      12.16       0.00       0.00       4.23       7.58       0.27       7.85        0.07    15.08   0.646
  sub3                      12.16       0.00       0.00       4.29       7.54       0.21       7.75        0.17    34.61   0.637
  sub4                      12.16       0.00       0.00       1.19      10.57       0.14      10.71        0.22    42.34   0.881
  sub5                      12.16       0.00       0.00       0.69      11.21       0.16      11.38        0.13    26.18   0.935
  sub7                      12.16       0.00       0.00       0.88      11.01       0.22      11.22        0.04     7.95   0.923
  sub8                      12.16       0.00       0.00       0.89      11.00       0.21      11.20        0.07    14.89   0.921
  sub9                      12.16       0.00       0.00       0.89      10.99       0.21      11.20        0.05    11.18   0.921
  sub10                     12.16       0.00       0.00       0.79      11.10       0.18      11.28        0.12    25.49   0.928
  sub11                     12.16       0.00       0.00       0.78      11.12       0.19      11.31        0.13    27.35   0.930
  sub12                     12.16       0.00       0.00       1.27      10.53       0.31      10.85        0.09    20.52   0.892
  sub14                     12.16       0.00       0.00       0.89      10.99       0.20      11.20        0.11    22.08   0.920
  sub15                     12.16       0.00       0.00       3.28       8.45       0.37       8.82        0.15    32.49   0.725
  sub16                     12.16       0.00       0.00       3.51       8.11       0.50       8.61        0.09    20.36   0.708
  sub17                     12.16       0.00       0.00       3.41       8.23       0.48       8.71        0.07    16.72   0.716
  sub22                     12.16       0.00       0.00       4.80       6.89       0.43       7.32        0.46   102.62   0.602
  sub23                     12.16       0.00       0.00       4.05       7.62       0.45       8.07        0.38    85.35   0.663
  sub60                     12.16       0.00       0.00       1.42       8.82       0.04       8.86        2.69   336.84   0.729
  sub61                     12.16       0.00       0.00       2.01       8.94       0.06       9.00        2.78   399.45   0.740
  sub62                     12.16       0.00       0.00       0.92       9.73       0.05       9.78        3.01   415.79   0.804
  sub63                     12.16       0.00       0.00       3.46       7.82       0.06       7.88        2.39   361.21   0.648
  sub64                     12.16       0.00       0.00       1.78       8.47       0.04       8.51        2.59   320.97   0.699
  sub65                     12.16       0.00       0.00       1.54       8.61       0.04       8.65        2.66   326.54   0.711
  sub66                     12.16       0.00       0.00       3.49       7.26       0.04       7.30        2.24   290.53   0.600
  sub67                     12.16       0.00       0.00       0.91      10.24       0.07      10.31        3.18   494.23   0.848
  sub68                     12.16       0.00       0.00       1.64       9.40       0.06       9.46        2.91   432.52   0.778
  sub69                     12.16       0.00       0.00       1.73       9.72       0.09       9.82        2.29   383.95   0.807
  sub70                     12.16      10.02       0.00       6.98      13.09       0.56      13.65        3.12   394.93   0.615
  sub71                     12.16       0.00       0.00       0.93       9.48       0.05       9.53        2.25   296.34   0.783
  sub72                     12.16       0.00       0.00       0.83       7.62       0.02       7.64        1.56   151.13   0.628
  1                         12.16      13.29       0.00       1.37      14.64       3.94      18.57        4.36   399.24   0.730
  2                         12.16       0.00       0.00       3.02       2.89       1.65       4.55        1.82   245.52   0.374
  
  
  ****************************
  Subcatchment Washoff Summary
  ****************************
  
  ------------------------------------------------------------------------------------------
                                 COD            SS            TN            TP         NH4-N
  Subcatchment                    kg            kg            kg            kg            kg
  ------------------------------------------------------------------------------------------
  sub0                         2.176         4.147         0.037         0.003         0.018
  sub1                         9.268        18.138         0.173         0.012         0.083
  sub2                         5.563        10.570         0.119         0.008         0.054
  sub3                        13.747        25.918         0.288         0.019         0.132
  sub4                        21.530        42.606         0.429         0.026         0.205
  sub5                        21.300        41.103         0.378         0.029         0.183
  sub7                         4.748         9.424         0.090         0.006         0.043
  sub8                         7.142        14.500         0.143         0.008         0.069
  sub9                         6.100        12.212         0.118         0.007         0.057
  sub10                       17.532        34.266         0.321         0.023         0.155
  sub11                       17.086        33.770         0.320         0.022         0.154
  sub12                       14.392        27.890         0.260         0.019         0.125
  sub14                       13.021        25.823         0.247         0.016         0.119
  sub15                       16.182        30.744         0.313         0.023         0.146
  sub16                       10.318        19.555         0.197         0.015         0.092
  sub17                        9.471        17.789         0.175         0.014         0.082
  sub22                       48.821        90.813         0.932         0.070         0.434
  sub23                       29.138        56.181         0.627         0.041         0.287
  sub60                      203.703       376.194         4.083         0.248         1.956
  sub61                      251.300       461.579         4.699         0.320         2.261
  sub62                      262.762       491.326         5.157         0.324         2.474
  sub63                      185.047       334.594         3.739         0.261         1.731
  sub64                      253.867       452.095         4.687         0.339         2.235
  sub65                      260.106       465.192         4.834         0.344         2.309
  sub66                      146.558       263.078         3.037         0.197         1.417
  sub67                      388.205       718.566         6.963         0.510         3.363
  sub68                      276.714       513.393         5.318         0.356         2.539
  sub69                      247.676       464.012         4.658         0.325         2.225
  sub70                      413.256       778.342         8.287         0.572         3.877
  sub71                      173.740       327.842         3.597         0.206         1.720
  sub72                      136.329       239.316         2.558         0.174         1.230
  1                          280.724       531.718         5.751         0.398         2.660
  2                           35.485        61.812         1.030         0.062         0.437
  ------------------------------------------------------------------------------------------
  System                    3783.006      6994.507        73.566         4.996        34.873
  
  
  ******************
  Node Depth Summary
  ******************
  
  ---------------------------------------------------------------------------------
                                 Average  Maximum  Maximum  Time of Max    Reported
                                   Depth    Depth      HGL   Occurrence   Max Depth
  Node                 Type       Meters   Meters   Meters  days hr:min      Meters
  ---------------------------------------------------------------------------------
  WS02001211           JUNCTION     0.77     0.82     5.65     0  03:14        0.82
  WS02001212           JUNCTION     0.48     0.54     5.60     0  03:13        0.54
  WS02001213           JUNCTION     0.72     0.80     5.56     0  03:12        0.80
  WS02003069           JUNCTION     0.52     0.65     5.23     0  03:12        0.65
  WS02003072           JUNCTION     0.58     0.70     5.07     0  03:12        0.70
  WS02003073           JUNCTION     0.36     0.44     4.50     0  03:13        0.44
  WS02003060           JUNCTION     0.46     0.57     5.50     0  03:11        0.57
  WS02003066           JUNCTION     0.25     0.34     5.89     0  03:10        0.34
  WS02003059           JUNCTION     0.77     0.86     5.54     0  03:12        0.86
  WS02003067           JUNCTION     0.61     0.76     6.08     0  03:10        0.76
  WS02004401           JUNCTION     0.73     1.03     7.03     0  03:08        1.03
  WS02004402           JUNCTION     0.76     1.04     7.00     0  03:08        1.04
  WS02004403           JUNCTION     0.78     1.04     6.97     0  03:08        1.04
  WS02004404           JUNCTION     0.85     1.10     6.95     0  03:08        1.10
  WS02004406           JUNCTION     0.85     1.06     6.89     0  03:08        1.06
  WS02004409           JUNCTION     0.55     0.80     6.57     0  03:09        0.80
  WS02004410           JUNCTION     0.57     0.80     6.52     0  03:09        0.80
  WS02004411           JUNCTION     0.58     0.80     6.48     0  03:10        0.80
  WS02004412           JUNCTION     0.59     0.79     6.43     0  03:10        0.79
  WS02004413           JUNCTION     0.74     0.94     6.41     0  03:10        0.94
  WS02004405           JUNCTION     0.85     1.08     6.93     0  03:08        1.08
  WS02006109           JUNCTION     0.82     1.15     7.77     0  03:05        1.15
  WS02006110           JUNCTION     0.80     1.04     7.62     0  03:07        1.03
  WS02006111           JUNCTION     0.25     0.46     7.17     0  03:08        0.46
  WS02006112           JUNCTION     0.91     1.27     7.15     0  03:04        1.26
  WS02006113           JUNCTION     0.37     0.53     7.42     0  03:01        0.52
  WS02006115           JUNCTION     0.63     0.96     7.10     0  03:08        0.96
  WS02006116           JUNCTION     0.71     1.03     7.07     0  03:08        1.03
  WS02006230           JUNCTION     0.82     1.30     8.05     0  03:08        1.30
  WS02006231           JUNCTION     0.56     1.03     8.15     0  03:13        1.02
  WS02006232           JUNCTION     0.71     1.20     8.24     0  03:13        1.19
  WS02006234           JUNCTION     0.64     1.19     8.34     0  03:13        1.18
  WS02006235           JUNCTION     0.68     1.26     8.42     0  03:13        1.24
  WS02006238           JUNCTION     0.71     1.28     8.43     0  03:13        1.27
  WS02006240           JUNCTION     0.61     1.20     8.49     0  03:13        1.20
  WS02006242           JUNCTION     0.66     1.27     8.54     0  03:12        1.26
  WS02006243           JUNCTION     0.54     1.17     8.59     0  03:12        1.15
  WS02006245           JUNCTION     0.52     1.14     8.63     0  03:12        1.14
  WS02006247           JUNCTION     0.53     1.15     8.65     0  03:13        1.14
  WS02006248           JUNCTION     0.47     1.08     8.67     0  03:12        1.08
  WS02006249           JUNCTION     0.49     1.09     8.69     0  03:12        1.09
  WS02006239           JUNCTION     0.66     1.25     8.46     0  03:13        1.24
  WS02006251           JUNCTION     0.47     1.26     8.93     0  07:19        1.13
  WS02006252           JUNCTION     0.32     0.81     9.06     0  07:19        0.68
  WS02006253           JUNCTION     0.50     1.32     8.97     0  07:19        1.16
  WS02006256           JUNCTION     1.64     2.35     9.28     0  00:00        2.35
  WS02004138           JUNCTION     0.19     0.20     7.45     0  00:00        0.19
  WS02004139           JUNCTION     0.71     0.76     5.67     0  03:14        0.76
  WS02004407           JUNCTION     0.25     0.35     6.66     0  03:09        0.35
  WS02006228           JUNCTION     0.83     1.24     7.89     0  03:07        1.24
  WS02006229           JUNCTION     0.81     1.27     7.97     0  03:07        1.27
  WS02006280           JUNCTION     0.07     0.20     8.47     0  03:02        0.20
  WS02006284           JUNCTION     0.37     0.56     8.96     0  03:02        0.56
  WS02006287           JUNCTION     0.10     0.30     9.25     0  03:01        0.30
  WSF200               JUNCTION     0.24     0.37     5.60     0  03:10        0.37
  HS02004901           JUNCTION     0.13     0.29    10.12     0  03:01        0.29
  HS02004881           JUNCTION     0.01     0.04     9.07     0  03:01        0.04
  HS02004876           JUNCTION     0.04     0.12     9.15     0  03:01        0.12
  HS02004870           JUNCTION     0.02     0.07     9.35     0  03:01        0.07
  HS02004862           JUNCTION     0.02     0.08     9.46     0  03:01        0.08
  HS02004856           JUNCTION     0.08     0.13     9.55     0  03:01        0.13
  HS02004852           JUNCTION     0.01     0.05     9.56     0  03:01        0.05
  HS02004848           JUNCTION     0.01     0.05     9.65     0  03:01        0.05
  HS02004842           JUNCTION     0.34     0.38     9.65     0  03:01        0.38
  HS02004837           JUNCTION     0.03     0.07     9.65     0  03:01        0.07
  HS02004830           JUNCTION     0.04     0.08     9.55     0  03:01        0.08
  HS02004824           JUNCTION     0.02     0.06     9.47     0  03:01        0.06
  HS02004817           JUNCTION     0.44     0.61     9.45     0  03:01        0.61
  HS02004807           JUNCTION     0.13     0.28     9.45     0  03:01        0.28
  HS02004802           JUNCTION     0.16     0.31     9.44     0  03:01        0.31
  HS02004799           JUNCTION     0.12     0.35     9.56     0  03:01        0.35
  HS02004792           JUNCTION     0.03     0.15     9.67     0  03:01        0.15
  HS02004788           JUNCTION     0.03     0.11    10.01     0  03:01        0.11
  HS02004785           JUNCTION     0.05     0.18    10.09     0  03:01        0.18
  HS02004777           JUNCTION     0.15     0.31    10.11     0  03:01        0.31
  HS02004770           JUNCTION     0.12     0.29    10.12     0  03:01        0.29
  HS02004480           JUNCTION     0.08     0.28     9.52     0  03:01        0.28
  HS02004479           JUNCTION     0.12     0.32     9.52     0  03:01        0.32
  HS02004478           JUNCTION     0.06     0.20     9.42     0  03:01        0.20
  YS02001745           JUNCTION     0.74     0.93     8.45     0  03:00        0.92
  YS02001748           JUNCTION     1.14     1.55     8.63     0  02:27        1.36
  YS02001751           JUNCTION     1.33     1.57     8.45     0  03:00        1.56
  YS02001754           JUNCTION     1.58     1.84     8.45     0  03:00        1.82
  YS02001762           JUNCTION     1.78     2.05     8.45     0  03:00        2.02
  YS02001765           JUNCTION     1.73     1.99     8.44     0  03:00        1.97
  YS02001767           JUNCTION     1.70     1.94     8.43     0  03:00        1.92
  YS02001770           JUNCTION     1.69     1.93     8.42     0  03:00        1.91
  YS02001774           JUNCTION     1.76     1.98     8.40     0  03:00        1.97
  YS02001779           JUNCTION     1.51     1.68     8.37     0  02:36        1.68
  YS02001882           JUNCTION     0.52     1.62     8.34     0  03:00        1.61
  YS02001884           JUNCTION     0.62     1.72     8.34     0  03:00        1.72
  YS02001759           JUNCTION     1.82     2.08     8.45     0  03:00        2.06
  YS02001887           JUNCTION     0.70     1.80     8.33     0  03:00        1.79
  YS02001890           JUNCTION     0.73     1.81     8.32     0  02:44        1.81
  YS02001898           JUNCTION     0.49     1.56     8.29     0  02:59        1.55
  YS02001901           JUNCTION     0.61     1.67     8.28     0  03:00        1.67
  YS02001904           JUNCTION     0.59     1.64     8.27     0  03:00        1.63
  YS02001907           JUNCTION     0.92     1.96     8.25     0  02:44        1.96
  YS02001910           JUNCTION     0.71     1.78     8.29     0  02:46        1.77
  YS02001915           JUNCTION     0.51     1.59     8.31     0  02:45        1.57
  YS02001918           JUNCTION     0.26     1.26     8.33     0  02:45        1.23
  YS02001619           JUNCTION     1.29     1.58     8.51     0  02:27        1.52
  YS02001629           JUNCTION     1.64     1.85     8.40     0  02:27        1.85
  YS02001641           JUNCTION     1.74     1.94     8.38     0  02:35        1.94
  YS02001644           JUNCTION     1.75     1.92     8.35     0  02:35        1.92
  YS02001652           JUNCTION     1.59     2.02     8.62     0  03:49        1.90
  YS02001655           JUNCTION     1.35     1.97     8.82     0  02:52        1.71
  YS02001920           JUNCTION     0.36     1.34     8.35     0  02:45        1.30
  YS02001923           JUNCTION     0.20     1.10     8.36     0  02:45        1.06
  YS02001926           JUNCTION     0.27     0.91     8.36     0  02:45        0.91
  YS02001929           JUNCTION     0.15     0.69     8.38     0  02:46        0.66
  YS02001658           JUNCTION     1.08     1.89     9.04     0  02:52        1.48
  YS02001661           JUNCTION     0.85     1.85     9.25     0  03:49        1.32
  YS02001664           JUNCTION     0.38     0.57     8.50     0  03:59        0.56
  YS02001622           JUNCTION     1.31     1.56     8.46     0  02:27        1.53
  YS02001633           JUNCTION     1.74     1.96     8.41     0  07:50        1.96
  YS02001649           JUNCTION     1.79     2.05     8.44     0  02:37        2.05
  YS02001757           JUNCTION     1.92     2.18     8.44     0  03:00        2.17
  YS02001895           JUNCTION     0.49     1.56     8.31     0  02:44        1.56
  YS02001625           JUNCTION     1.60     1.78     8.38     0  02:27        1.78
  YS02163301           JUNCTION     1.67     1.90     8.42     0  07:50        1.90
  YS02163601           JUNCTION     1.79     2.00     8.40     0  07:50        2.00
  YS02164001           JUNCTION     1.73     1.93     8.38     0  07:50        1.93
  YS02001647           JUNCTION     1.58     1.80     8.41     0  03:29        1.79
  YSB1154              JUNCTION     0.26     0.47     9.52     0  03:01        0.47
  YSB6556              JUNCTION     0.15     0.35     9.52     0  03:01        0.35
  YSB1174              JUNCTION     0.21     0.41     9.52     0  03:01        0.41
  YSB1171              JUNCTION     0.41     0.62     9.52     0  03:01        0.62
  YS02006553           JUNCTION     0.92     1.96     8.25     0  02:50        1.96
  YS02006561           JUNCTION     0.29     1.08     7.74     0  02:44        1.07
  YS02006556           JUNCTION     0.89     1.92     8.23     0  03:00        1.92
  YS02006558           JUNCTION     0.93     1.96     8.23     0  02:58        1.95
  YS02001783           JUNCTION     0.50     1.47     7.61     0  02:44        1.46
  YS02001784           JUNCTION     0.52     1.56     7.63     0  02:34        1.40
  YS02001786           JUNCTION     0.46     1.77     7.80     0  02:34        1.25
  YS02001788           JUNCTION     0.39     1.52     7.49     0  02:34        1.12
  YS02001790           JUNCTION     0.50     1.96     7.60     0  04:37        1.29
  YS02001791           JUNCTION     0.45     2.72     8.19     0  04:36        1.26
  YS02001793           JUNCTION     0.60     2.64     7.47     0  04:35        1.80
  WSC                  OUTFALL      0.36     0.44     1.11     0  03:13        0.44
  JK-storage           STORAGE      2.63     5.80     6.60     0  02:34        5.80
  CC-storage           STORAGE      1.17     1.43     8.43     0  03:04        1.43
  XR-storage           STORAGE      6.67     7.72     5.72     0  02:50        7.72
  
  
  *******************
  Node Inflow Summary
  *******************
  
  -------------------------------------------------------------------------------------------------
                                  Maximum  Maximum                  Lateral       Total        Flow
                                  Lateral    Total  Time of Max      Inflow      Inflow     Balance
                                   Inflow   Inflow   Occurrence      Volume      Volume       Error
  Node                 Type           LPS      LPS  days hr:min    10^6 ltr    10^6 ltr     Percent
  -------------------------------------------------------------------------------------------------
  WS02001211           JUNCTION      7.35   389.57     0  05:48       0.207        9.97       0.410
  WS02001212           JUNCTION      0.00   391.66     0  05:48           0        9.93       0.220
  WS02001213           JUNCTION      0.00   393.62     0  05:47           0        9.91       0.315
  WS02003069           JUNCTION      0.32  1126.40     0  03:11     0.00902          20       0.179
  WS02003072           JUNCTION      0.00  1126.35     0  03:12           0          20       0.215
  WS02003073           JUNCTION      1.82  1128.21     0  03:13      0.0514          20       0.249
  WS02003060           JUNCTION     16.53  1126.03     0  03:11       0.466          20       0.168
  WS02003066           JUNCTION      0.00   724.22     0  03:10           0        9.73       0.048
  WS02003059           JUNCTION      0.00   396.66     0  05:47           0        9.88       0.408
  WS02003067           JUNCTION      0.00   724.14     0  03:10           0        9.74       0.098
  WS02004401           JUNCTION      0.00   724.45     0  03:08           0        9.97       0.208
  WS02004402           JUNCTION      0.00   724.52     0  03:08           0        9.95       0.198
  WS02004403           JUNCTION      0.00   724.58     0  03:08           0        9.93       0.180
  WS02004404           JUNCTION      0.16   724.78     0  03:08     0.00457        9.92       0.136
  WS02004406           JUNCTION      0.00   724.85     0  03:08           0        9.89       0.331
  WS02004409           JUNCTION      0.00   724.83     0  03:09           0        9.85       0.167
  WS02004410           JUNCTION      0.00   724.57     0  03:09           0        9.83       0.191
  WS02004411           JUNCTION      0.00   724.36     0  03:09           0        9.81       0.197
  WS02004412           JUNCTION      0.00   724.21     0  03:10           0        9.79       0.213
  WS02004413           JUNCTION      0.00   724.15     0  03:10           0        9.77       0.317
  WS02004405           JUNCTION      0.04   724.83     0  03:08     0.00107        9.91       0.206
  WS02006109           JUNCTION      1.23   717.98     0  03:07      0.0347          10       0.212
  WS02006110           JUNCTION      0.00   717.98     0  03:07           0        9.99       0.184
  WS02006111           JUNCTION      0.00   725.93     0  03:01           0        9.97       0.036
  WS02006112           JUNCTION     16.72   724.75     0  03:08      0.0747          10       0.267
  WS02006113           JUNCTION      0.00   718.01     0  03:07           0        9.98       0.088
  WS02006115           JUNCTION      0.00   724.75     0  03:08           0          10       0.195
  WS02006116           JUNCTION      0.00   724.45     0  03:08           0        9.99       0.190
  WS02006230           JUNCTION     10.28   533.12     0  07:20        0.29        7.85       0.169
  WS02006231           JUNCTION      0.00   522.84     0  06:51           0        7.57       0.096
  WS02006232           JUNCTION      0.00   522.81     0  07:20           0        7.58       0.204
  WS02006234           JUNCTION      0.00   523.58     0  06:51           0        7.59       0.089
  WS02006235           JUNCTION      0.00   523.84     0  07:24           0        7.64       0.124
  WS02006238           JUNCTION      0.00   419.23     0  07:30           0        4.28       0.164
  WS02006240           JUNCTION      0.00   417.69     0  07:30           0        4.25       0.255
  WS02006242           JUNCTION      0.00   417.18     0  07:30           0        4.26       0.315
  WS02006243           JUNCTION      0.00   416.90     0  07:30           0        4.26       0.145
  WS02006245           JUNCTION      0.00   416.27     0  07:30           0        4.26       0.201
  WS02006247           JUNCTION      0.00   415.69     0  07:30           0        4.27       0.151
  WS02006248           JUNCTION      0.00   415.20     0  07:30           0        4.27       0.115
  WS02006249           JUNCTION      0.00   426.82     0  03:20           0        4.55       0.199
  WS02006239           JUNCTION      0.00   418.82     0  07:30           0        4.26       0.167
  WS02006251           JUNCTION      0.08   426.19     0  03:20     0.00217        4.59       0.191
  WS02006252           JUNCTION      0.00   400.00     0  04:50           0        4.14       0.011
  WS02006253           JUNCTION      1.99   119.64     0  04:52     0.00928       0.457       0.822
  WS02006256           JUNCTION      0.00   983.00     0  00:00           0        9.86       0.002
  WS02004138           JUNCTION      0.00   380.00     0  00:00           0         9.8       0.062
  WS02004139           JUNCTION      0.32   396.51     0  00:00     0.00905        9.81       0.467
  WS02004407           JUNCTION      0.00   724.89     0  03:09           0        9.85       0.073
  WS02006228           JUNCTION      0.00   716.74     0  03:07           0          10       0.157
  WS02006229           JUNCTION      0.00   717.14     0  03:06           0          10       0.121
  WS02006280           JUNCTION      0.00   413.62     0  03:02           0        2.17       0.003
  WS02006284           JUNCTION      0.10   413.57     0  03:02      0.0027        2.17       0.041
  WS02006287           JUNCTION      0.00   413.23     0  03:01           0        2.17       0.034
  WSF200               JUNCTION      0.00   724.25     0  03:10           0        9.73       0.045
  HS02004901           JUNCTION     20.36    20.36     0  03:01      0.0901      0.0904       1.991
  HS02004881           JUNCTION      7.95    84.19     0  03:01      0.0378        0.41       0.099
  HS02004876           JUNCTION     14.96    76.76     0  03:01      0.0728       0.373       0.148
  HS02004870           JUNCTION     14.89    62.16     0  03:01      0.0716         0.3       0.037
  HS02004862           JUNCTION     15.28    47.68     0  03:01      0.0788       0.229       0.077
  HS02004856           JUNCTION     11.18    32.73     0  03:01      0.0539       0.152       0.963
  HS02004852           JUNCTION      0.00    21.94     0  03:01           0      0.0979       0.059
  HS02004848           JUNCTION     34.61    34.61     0  03:01       0.174       0.174       0.028
  HS02004842           JUNCTION      0.00    12.41     0  03:01           0      0.0895      16.998
  HS02004837           JUNCTION     31.84    43.95     0  03:01       0.303        0.38       0.215
  HS02004830           JUNCTION      0.15    43.86     0  03:01     0.00423        0.37       0.334
  HS02004824           JUNCTION     42.39    85.91     0  03:01       0.225       0.594       0.091
  HS02004817           JUNCTION      0.60    86.29     0  03:01      0.0169        0.61       2.809
  HS02004807           JUNCTION     27.35   112.32     0  03:01       0.131       0.725       0.604
  HS02004802           JUNCTION      0.00   111.37     0  03:01           0       0.723       0.549
  HS02004799           JUNCTION     22.08   258.93     0  03:01       0.107        1.24       0.223
  HS02004792           JUNCTION    102.90   238.02     0  03:01        0.47        1.14       0.036
  HS02004788           JUNCTION     34.16   135.95     0  03:01       0.199       0.669       0.059
  HS02004785           JUNCTION      0.15   103.53     0  03:01     0.00423       0.471       0.106
  HS02004777           JUNCTION      0.03   104.16     0  03:01    0.000846       0.472       1.115
  HS02004770           JUNCTION     85.35   105.11     0  03:01       0.385       0.473       0.659
  HS02004480           JUNCTION      0.00   302.45     0  03:01           0        1.46       0.076
  HS02004479           JUNCTION      0.00    44.91     0  03:02           0       0.232       0.317
  HS02004478           JUNCTION      0.00   413.09     0  03:01           0        2.17       0.014
  YS02001745           JUNCTION    336.84   392.56     0  02:26        2.69         2.7       0.386
  YS02001748           JUNCTION      0.04   558.84     0  02:26     0.00127        2.69       0.812
  YS02001751           JUNCTION      0.01   354.99     0  02:17     0.00031        2.65       0.903
  YS02001754           JUNCTION      0.26   342.18     0  03:01     0.00733        2.64       0.948
  YS02001762           JUNCTION      0.00   292.98     0  02:38           0        1.94       1.107
  YS02001765           JUNCTION      0.00   293.33     0  02:38           0        1.94       1.276
  YS02001767           JUNCTION      0.54   293.52     0  02:38      0.0151        1.97       1.850
  YS02001770           JUNCTION    415.94   608.05     0  03:05        3.01        3.48       0.904
  YS02001774           JUNCTION      0.00   608.37     0  03:04           0        1.96       1.290
  YS02001779           JUNCTION      0.01   608.36     0  03:05    0.000141        1.93       0.805
  YS02001882           JUNCTION      0.00    40.41     0  02:36           0      0.0166      16.306
  YS02001884           JUNCTION      0.00    73.71     0  02:36           0      0.0538      13.028
  YS02001759           JUNCTION    399.49   574.90     0  02:38        2.78        4.22       0.543
  YS02001887           JUNCTION    494.68   494.91     0  03:01        3.19        3.22       0.266
  YS02001890           JUNCTION      0.00   495.20     0  03:01           0        3.18       0.294
  YS02001898           JUNCTION      0.00   495.36     0  03:01           0        3.16       0.100
  YS02001901           JUNCTION      0.00   495.74     0  03:01           0        3.16       0.222
  YS02001904           JUNCTION      0.00   495.87     0  03:01           0        3.16       0.205
  YS02001907           JUNCTION      0.00   942.60     0  03:00           0        7.02       0.350
  YS02001910           JUNCTION      0.00   451.46     0  03:00           0        3.87       0.308
  YS02001915           JUNCTION    296.36   451.41     0  03:00        2.25         3.9       0.158
  YS02001918           JUNCTION      0.00   211.96     0  02:46           0        1.66       0.117
  YS02001619           JUNCTION    290.53   290.53     0  03:01        2.24        2.24       0.546
  YS02001629           JUNCTION      0.00   205.17     0  02:17           0        1.69       1.736
  YS02001641           JUNCTION      0.00   398.71     0  02:34           0        4.25       0.497
  YS02001644           JUNCTION    321.01  1398.03     0  03:01        2.59        9.67       0.272
  YS02001652           JUNCTION      0.00   372.80     0  03:01           0        2.35       1.014
  YS02001655           JUNCTION      0.15   382.67     0  02:18     0.00434        2.37       1.047
  YS02001920           JUNCTION      2.87   211.33     0  02:46      0.0809        1.64       0.182
  YS02001923           JUNCTION      0.04   230.71     0  02:47     0.00106        1.56       0.051
  YS02001926           JUNCTION      0.05   185.58     0  02:46     0.00147        1.56       0.211
  YS02001929           JUNCTION    151.13   151.13     0  03:01        1.56        1.56       0.036
  YS02001658           JUNCTION      0.00   623.85     0  02:23           0        2.41       0.923
  YS02001661           JUNCTION      0.00   621.35     0  02:38           0        2.82      -0.344
  YS02001664           JUNCTION    361.21   361.21     0  03:01        2.38         2.8       0.205
  YS02001622           JUNCTION      0.00   291.02     0  03:01           0        2.22       1.450
  YS02001633           JUNCTION    326.74   397.61     0  02:35        2.66        4.31       0.752
  YS02001649           JUNCTION      0.00   827.37     0  02:35           0         5.9       0.630
  YS02001757           JUNCTION      0.00  1578.95     0  02:35           0        9.36       0.991
  YS02001895           JUNCTION      0.00   494.94     0  03:00           0        3.17       0.165
  YS02001625           JUNCTION      0.00   290.56     0  03:01           0        2.19       1.811
  YS02163301           JUNCTION      0.00   204.49     0  02:27           0        1.67       1.465
  YS02163601           JUNCTION      0.11   397.50     0  02:34      0.0031        4.27       0.707
  YS02164001           JUNCTION      0.00   398.54     0  02:34           0        4.25       0.475
  YS02001647           JUNCTION      0.00   709.83     0  03:06           0        4.94       0.574
  YSB1154              JUNCTION     26.18    26.18     0  03:01       0.129        0.13       1.131
  YSB6556              JUNCTION      0.00    25.83     0  03:01           0        0.13       0.969
  YSB1174              JUNCTION     20.52    20.52     0  03:01      0.0948      0.0952       1.369
  YSB1171              JUNCTION      0.00    45.30     0  03:01           0       0.231       2.822
  YS02006553           JUNCTION      0.00   703.50     0  03:31           0        6.56       0.239
  YS02006561           JUNCTION      0.00   982.29     0  03:00           0        9.44       0.008
  YS02006556           JUNCTION      0.00   703.30     0  03:31           0        6.57       0.171
  YS02006558           JUNCTION    433.40   983.32     0  03:00        2.93        9.47       0.057
  YS02001783           JUNCTION      0.00   982.44     0  03:00           0        9.44       0.025
  YS02001784           JUNCTION      1.06   983.53     0  03:00      0.0299        9.47       0.038
  YS02001786           JUNCTION      0.06   983.36     0  02:59     0.00159        9.47       0.037
  YS02001788           JUNCTION      0.07   983.50     0  03:00       0.002        9.47       0.023
  YS02001790           JUNCTION      0.15   983.74     0  03:00     0.00437        9.47       0.018
  YS02001791           JUNCTION      0.00   983.72     0  03:00           0        9.47       0.008
  YS02001793           JUNCTION      0.00   984.02     0  03:00           0        9.49      -0.010
  WSC                  OUTFALL       0.00  1128.19     0  03:13           0        19.9       0.000
  JK-storage           STORAGE       0.00  1135.95     0  02:04           0        9.65     -11.299
  CC-storage           STORAGE       0.00  1579.36     0  02:35           0        7.74       0.811
  XR-storage           STORAGE     844.76   844.76     0  03:01        11.8        12.4      -0.002
  
  
  **********************
  Node Surcharge Summary
  **********************
  
  Surcharging occurs when water rises above the top of the highest conduit.
  ---------------------------------------------------------------------
                                               Max. Height   Min. Depth
                                   Hours       Above Crown    Below Rim
  Node                 Type      Surcharged         Meters       Meters
  ---------------------------------------------------------------------
  WS02004401           JUNCTION        0.26          0.034        1.626
  WS02004402           JUNCTION        0.31          0.044        1.696
  WS02004403           JUNCTION        0.33          0.041        1.989
  WS02004404           JUNCTION        0.61          0.099        2.681
  WS02004406           JUNCTION        0.53          0.063        2.387
  WS02004405           JUNCTION        0.57          0.084        2.716
  WS02006109           JUNCTION        3.85          0.331        1.489
  WS02006110           JUNCTION        2.01          0.125        1.725
  WS02006112           JUNCTION        2.36          0.266        1.414
  WS02006230           JUNCTION        1.52          0.224        1.346
  WS02006231           JUNCTION        1.75          0.319        1.211
  WS02006232           JUNCTION        3.52          0.501        0.979
  WS02006234           JUNCTION        2.38          0.467        0.773
  WS02006235           JUNCTION        2.87          0.548        0.742
  WS02006238           JUNCTION        3.01          0.564        0.866
  WS02006240           JUNCTION        2.02          0.490        0.900
  WS02006242           JUNCTION        2.26          0.539        0.281
  WS02006243           JUNCTION        1.74          0.456        0.314
  WS02006245           JUNCTION        1.65          0.431        0.419
  WS02006247           JUNCTION        1.67          0.439        0.321
  WS02006248           JUNCTION        1.55          0.365        0.015
  WS02006249           JUNCTION        1.58          0.390        0.000
  WS02006239           JUNCTION        2.35          0.510        0.780
  WS02006251           JUNCTION        1.10          0.233        0.947
  WS02006252           JUNCTION        2.03          0.413        0.687
  WS02006253           JUNCTION        1.13          0.283        2.197
  WS02006256           JUNCTION        6.71          2.050        0.000
  WS02006228           JUNCTION        3.79          0.414        1.786
  YS02001748           JUNCTION        5.31          0.471        0.719
  YS02001751           JUNCTION        5.48          0.567        0.633
  YS02001754           JUNCTION        5.69          0.788        0.362
  YS02001762           JUNCTION        5.87          1.048        0.102
  YS02001765           JUNCTION        5.84          0.988        0.112
  YS02001767           JUNCTION        5.81          0.943        0.087
  YS02001770           JUNCTION        5.80          0.896        0.024
  YS02001774           JUNCTION        5.86          0.982        0.068
  YS02001779           JUNCTION        5.68          0.680        0.000
  YS02001882           JUNCTION        0.90          0.621        0.209
  YS02001884           JUNCTION        0.93          0.661        0.209
  YS02001759           JUNCTION        5.89          1.083        0.127
  YS02001887           JUNCTION        0.99          0.746        0.204
  YS02001890           JUNCTION        1.02          0.760        0.000
  YS02001898           JUNCTION        0.86          0.526        0.214
  YS02001901           JUNCTION        0.96          0.674        0.196
  YS02001904           JUNCTION        0.94          0.636        0.214
  YS02001907           JUNCTION        1.77          0.950        0.000
  YS02001910           JUNCTION        1.06          0.778        0.322
  YS02001915           JUNCTION        0.89          0.587        0.413
  YS02001918           JUNCTION        0.71          0.261        0.549
  YS02001619           JUNCTION        5.47          0.578        0.032
  YS02001629           JUNCTION        5.48          0.470        0.000
  YS02001641           JUNCTION        5.85          0.939        0.161
  YS02001644           JUNCTION        5.85          0.920        0.000
  YS02001652           JUNCTION        5.73          0.992        0.138
  YS02001655           JUNCTION        5.50          0.965        0.235
  YS02001920           JUNCTION        0.74          0.340        0.800
  YS02001658           JUNCTION        5.34          0.894        0.406
  YS02001661           JUNCTION        0.21          0.778        0.612
  YS02001622           JUNCTION        5.51          0.556        0.064
  YS02001633           JUNCTION        5.83          0.937        0.123
  YS02001649           JUNCTION        5.87          1.050        0.000
  YS02001757           JUNCTION        5.98          1.182        0.028
  YS02001895           JUNCTION        0.88          0.561        0.189
  YS02001625           JUNCTION        5.76          0.780        0.000
  YS02163301           JUNCTION        5.81          0.899        0.131
  YS02163601           JUNCTION        5.87          0.998        0.082
  YS02164001           JUNCTION        5.84          0.926        0.174
  YS02001647           JUNCTION        5.75          0.800        0.100
  YS02006553           JUNCTION        1.87          0.964        0.226
  YS02006561           JUNCTION        0.77          0.281        0.869
  YS02006556           JUNCTION        1.30          0.880        0.470
  YS02006558           JUNCTION        1.26          0.861        0.539
  YS02001783           JUNCTION        1.04          0.668        0.932
  YS02001784           JUNCTION        1.02          0.760        0.730
  YS02001786           JUNCTION        0.97          0.967        0.463
  YS02001788           JUNCTION        0.91          0.716        0.764
  YS02001790           JUNCTION        1.65          1.157        0.000
  YS02001791           JUNCTION        1.74          1.920        0.000
  YS02001793           JUNCTION        2.00          1.636        0.964
  
  
  *********************
  Node Flooding Summary
  *********************
  
  Flooding refers to all water that overflows a node, whether it ponds or not.
  --------------------------------------------------------------------------
                                                             Total   Maximum
                                 Maximum   Time of Max       Flood    Ponded
                        Hours       Rate    Occurrence      Volume     Depth
  Node                 Flooded       LPS   days hr:min    10^6 ltr    Meters
  --------------------------------------------------------------------------
  WS02006249              1.06    130.17      0  03:20       0.266     0.000
  WS02006256              3.96    978.40      0  00:00       6.464     0.000
  YS02001779              2.45    608.34      0  03:05       1.910     0.000
  YS02001890              0.01      0.71      0  02:44       0.000     0.000
  YS02001907              0.58    393.68      0  03:01       0.442     0.000
  YS02001629              0.01      9.87      0  02:27       0.000     0.000
  YS02001644              4.49   1397.46      0  03:01       7.552     0.000
  YS02001649              0.03     27.56      0  03:51       0.001     0.000
  YS02001625              1.20    235.83      0  03:01       0.464     0.000
  YS02001790              0.01    114.56      0  04:37       0.000     0.000
  YS02001791              0.01    215.20      0  04:36       0.000     0.000
  JK-storage              0.71    815.40      0  02:40       0.880     0.000
  XR-storage              3.14    464.71      0  03:01       1.990     0.000
  
  
  **********************
  Storage Volume Summary
  **********************
  
  --------------------------------------------------------------------------------------------------
                         Average     Avg  Evap Exfil       Maximum     Max    Time of Max    Maximum
                          Volume    Pcnt  Pcnt  Pcnt        Volume    Pcnt     Occurrence    Outflow
  Storage Unit           1000 m3    Full  Loss  Loss       1000 m3    Full    days hr:min        LPS
  --------------------------------------------------------------------------------------------------
  JK-storage               0.132      45     0     0         0.291     100       0  02:34     983.00
  CC-storage               3.267      21     0     0         3.980      25       0  03:04     400.00
  XR-storage               0.801      86     0     0         0.926     100       0  02:50     380.00
  
  
  ***********************
  Outfall Loading Summary
  ***********************
  
  ---------------------------------------------------------------------------------------------------------------------------------
                         Flow       Avg       Max       Total         Total         Total         Total         Total         Total
                         Freq      Flow      Flow      Volume           COD            SS            TN            TP         NH4-N
  Outfall Node           Pcnt       LPS       LPS    10^6 ltr            kg            kg            kg            kg            kg
  ---------------------------------------------------------------------------------------------------------------------------------
  WSC                   99.98    794.70   1128.19      19.922      2326.329      3973.952       150.650        17.754        91.255
  ---------------------------------------------------------------------------------------------------------------------------------
  System                99.98    794.70   1128.19      19.922      2326.329      3973.952       150.650        17.754        91.255
  
  
  ********************
  Link Flow Summary
  ********************
  
  -----------------------------------------------------------------------------
                                 Maximum  Time of Max   Maximum    Max/    Max/
                                  |Flow|   Occurrence   |Veloc|    Full    Full
  Link                 Type          LPS  days hr:min     m/sec    Flow   Depth
  -----------------------------------------------------------------------------
  WS02003066WSF200     CONDUIT    724.25     0  03:10      2.88    0.12    0.27
  WS02006287WS02006284 CONDUIT    413.48     0  03:02      2.04    0.19    0.30
  WS02006284WS02006280 CONDUIT    413.62     0  03:02      2.28    0.17    0.28
  WS02006280WS02006229 CONDUIT    413.67     0  03:02      3.68    0.09    0.20
  WS02006229WS02006228 CONDUIT    716.74     0  03:07      1.43    2.37    1.00
  WS02006256WS02006235 CONDUIT    288.60     0  00:00      4.23    3.05    1.00
  WS02006253WS02006251 CONDUIT    117.76     0  04:52      0.60    0.35    1.00
  WS02006252WS02006251 CONDUIT    403.37     0  04:54      3.21    1.48    1.00
  WS02006251WS02006249 CONDUIT    426.82     0  03:20      1.11    1.23    1.00
  WS02006249WS02006248 CONDUIT    415.20     0  07:30      1.14    2.27    1.00
  WS02006248WS02006247 CONDUIT    415.69     0  07:30      1.11    0.90    1.00
  WS02006247WS02006245 CONDUIT    416.27     0  07:30      1.08    3.30    1.00
  WS02006245WS02006243 CONDUIT    416.90     0  07:30      1.09    1.23    1.00
  WS02006243WS02006242 CONDUIT    417.18     0  07:30      1.08    0.89    1.00
  WS02006242WS02006240 CONDUIT    417.69     0  07:30      1.09    1.66    1.00
  WS02006240WS02006239 CONDUIT    418.82     0  07:30      1.09    1.32    1.00
  WS02006239WS02006238 CONDUIT    419.23     0  07:30      1.09    1.34    1.00
  WS02006238WS02006235 CONDUIT    420.04     0  07:30      1.46    0.94    1.00
  WS02006235WS02006234 CONDUIT    523.58     0  06:51      1.36    5.52    1.00
  WS02006234WS02006232 CONDUIT    522.81     0  07:20      1.39    1.06    1.00
  WS02006232WS02006231 CONDUIT    522.84     0  06:51      1.36    1.10    1.00
  WS02006231WS02006230 CONDUIT    522.84     0  07:20      1.40    7.93    1.00
  WS02006230WS02006229 CONDUIT    535.22     0  07:20      1.39   11.91    1.00
  WS02006228WS02006109 CONDUIT    716.75     0  03:07      1.43    3.13    1.00
  WS02006116WS02004401 CONDUIT    724.45     0  03:08      0.92    1.00    1.00
  WS02006115WS02006116 CONDUIT    724.45     0  03:08      0.93    0.93    0.97
  WS02006113WS02006111 CONDUIT    725.93     0  03:01      2.59    0.87    0.61
  WS02006112WS02006115 CONDUIT    724.75     0  03:08      0.93    0.43    0.98
  WS02006111WS02006112 CONDUIT    717.14     0  03:08      1.72    0.34    0.78
  WS02006110WS02006113 CONDUIT    718.01     0  03:07      1.61    0.65    0.83
  WS02006109WS02006110 CONDUIT    717.98     0  03:07      1.43    1.38    1.00
  WS02004411WS02004412 CONDUIT    724.21     0  03:10      1.08    1.03    0.80
  WS02004401WS02004402 CONDUIT    724.52     0  03:08      0.92    0.87    1.00
  WS02004413WS02003067 CONDUIT    724.14     0  03:10      1.31    0.31    0.66
  WS02004412WS02004413 CONDUIT    724.15     0  03:10      1.00    0.48    0.87
  WS02004410WS02004411 CONDUIT    724.36     0  03:09      1.08    0.99    0.80
  WS02004409WS02004410 CONDUIT    724.57     0  03:09      1.08    0.94    0.80
  WS02004407WS02004409 CONDUIT    724.83     0  03:09      1.57    0.26    0.57
  WS02004406WS02004407 CONDUIT    724.89     0  03:09      1.29    0.32    0.67
  WS02004405WS02004406 CONDUIT    724.85     0  03:08      0.92    1.43    1.00
  WS02004404WS02004405 CONDUIT    724.79     0  03:08      0.92    7.10    1.00
  WS02004403WS02004404 CONDUIT    724.62     0  03:08      0.92    0.52    1.00
  WS02004402WS02004403 CONDUIT    724.58     0  03:08      0.92    1.04    1.00
  WS02004139WS02001211 CONDUIT    382.22     0  05:48      0.90    0.48    0.61
  WS02004138WS02004139 CONDUIT    396.19     0  00:00      3.65    0.08    0.45
  WS02003067WS02003066 CONDUIT    724.22     0  03:10      1.43    0.23    0.46
  WS02001213WS02003059 CONDUIT    396.66     0  05:47      0.88    0.65    0.82
  WS02001212WS02001213 CONDUIT    393.62     0  05:47      1.32    0.61    0.51
  WS02001211WS02001212 CONDUIT    391.66     0  05:48      0.78    0.30    0.68
  WS02003072WS02003073 CONDUIT   1126.38     0  03:13      1.84    2.43    0.53
  WS02003069WS02003072 CONDUIT   1126.35     0  03:12      1.72    0.54    0.56
  WS02003060WS02003069 CONDUIT   1126.08     0  03:11      1.95    0.44    0.51
  WS02003059WS02003060 CONDUIT    400.51     0  05:47      0.95    0.26    0.71
  HS02004901HS02004770 CONDUIT     20.53     0  03:01      0.07    0.08    0.42
  HS02004876HS02004881 CONDUIT     76.55     0  03:01      0.95    0.81    0.12
  HS02004870HS02004876 CONDUIT     61.90     0  03:01      0.65    0.04    0.14
  HS02004842HS02004848 CONDUIT     12.41     0  03:01      0.06    0.01    0.31
  HS02004837HS02004842 CONDUIT     12.98     0  03:02      0.42    0.01    0.32
  HS02004830HS02004837 CONDUIT     43.71     0  03:01      0.57    0.04    0.11
  HS02004824HS02004830 CONDUIT     43.67     0  03:01      0.59    0.06    0.11
  HS02004817HS02004824 CONDUIT     85.69     0  03:01      0.26    0.04    0.48
  HS02004770HS02004777 CONDUIT    104.13     0  03:01      0.35    0.19    0.43
  HS02004799HS02004480 CONDUIT    258.31     0  03:01      0.83    0.33    0.44
  HS02004792HS02004799 CONDUIT    237.05     0  03:01      0.95    0.15    0.36
  HS02004788HS02004792 CONDUIT    135.43     0  03:01      1.06    0.09    0.18
  HS02004785HS02004788 CONDUIT    103.22     0  03:02      0.71    0.78    0.21
  HS02004777HS02004785 CONDUIT    103.38     0  03:01      0.42    0.13    0.35
  HS02004480HS02004478 CONDUIT    302.30     0  03:01      1.26    1.27    0.34
  HS02004479HS02004480 CONDUIT     46.30     0  03:02      0.32    0.04    0.43
  HS02004862HS02004870 CONDUIT     47.43     0  03:01      0.66    0.05    0.10
  HS02004848HS02004852 CONDUIT     21.94     0  03:01      0.45    0.02    0.07
  HS02004856HS02004862 CONDUIT     32.47     0  03:01      0.48    0.03    0.10
  HS02004852HS02004856 CONDUIT     21.85     0  03:02      0.25    0.02    0.13
  HS02004802HS02004478 CONDUIT    111.52     0  03:02      0.45    0.10    0.36
  HS02004478WS02006287 CONDUIT    413.23     0  03:01      1.75    0.12    0.26
  HS02004817HS02004807 CONDUIT     86.14     0  03:01      0.19    0.05    0.63
  HS02004807HS02004802 CONDUIT    111.37     0  03:01      0.38    0.21    0.42
  YS02001759YS02001757 CONDUIT    575.26     0  02:38      0.73    0.41    1.00
  YS02001762YS02001759 CONDUIT    292.32     0  02:38      0.37    0.34    1.00
  YS02001765YS02001762 CONDUIT    292.98     0  02:38      0.37    0.27    1.00
  YS02001770YS02001767 CONDUIT    292.99     0  02:38      0.37    1.16    1.00
  YS02001774YS02001770 CONDUIT    608.37     0  03:04      0.77    0.39    1.00
  YS02001779YS02001774 CONDUIT    608.35     0  03:05      0.77    0.31    1.00
  YS02001649YS02001757 CONDUIT    826.12     0  02:35      1.05    0.50    1.00
  YS02001767YS02001765 CONDUIT    293.33     0  02:38      0.37    0.37    1.00
  YS02006561YS02001783 CONDUIT    982.44     0  03:00      2.15    0.51    1.00
  YS02001783YS02001784 CONDUIT    982.47     0  03:00      1.95    1.35    1.00
  YS02001784YS02001785 CONDUIT    983.30     0  02:59      1.96    2.29    1.00
  YS02001788YS02001790 CONDUIT    983.59     0  03:00      2.44    0.72    1.00
  YS02001790YS02001791 CONDUIT    983.72     0  03:00      2.89    1.07    1.00
  YS02001791YS02001793 CONDUIT    984.02     0  03:00      5.79    0.42    1.00
  YS02001910YS02001907 CONDUIT    451.68     0  03:00      0.58    0.25    1.00
  YS02001786YS02001788 CONDUIT    983.43     0  03:00      2.31    1.89    1.00
  YS02001915YS02001910 CONDUIT    451.46     0  03:00      0.59    0.22    1.00
  YS02001918YS02001915 CONDUIT    246.53     0  03:31      0.44    0.14    1.00
  YS02001923YS02001920 CONDUIT    208.46     0  02:46      0.72    0.09    1.00
  YS02001926YS02001923 CONDUIT    230.67     0  02:47      0.83    0.33    0.89
  YS02001929YS02001926 CONDUIT    185.53     0  02:46      0.89    0.09    0.79
  YS02001920YS02001918 CONDUIT    211.96     0  02:46      0.70    0.21    1.00
  YS02001629YS02163301 CONDUIT    204.49     0  02:27      0.26    0.25    1.00
  YS02001619YS02001622 CONDUIT    291.02     0  03:01      0.61    0.43    1.00
  YS02001622YS02001625 CONDUIT    290.56     0  03:01      0.37    0.16    1.00
  YS02001625YS02001629 CONDUIT    205.17     0  02:17      0.26    0.10    1.00
  YS02163301YS02001633 CONDUIT    206.45     0  02:27      0.26    0.19    1.00
  YS02163601YS02164001 CONDUIT    398.54     0  02:34      0.51    0.35    1.00
  YS02164001YS02001641 CONDUIT    398.71     0  02:34      0.51    0.54    1.00
  YS02001641YS02001644 CONDUIT    399.07     0  02:34      0.51    1.29    1.00
  YS02001647YS02001649 CONDUIT    709.83     0  03:06      0.90    0.37    1.00
  YS02006553YS02006556 CONDUIT    703.30     0  03:31      0.90    0.60    1.00
  YS02006556YS02006558 CONDUIT    704.96     0  03:31      0.90    0.56    1.00
  YSB6556YSB1171       CONDUIT     25.76     0  03:03      0.09    0.03    0.70
  YS02001907YS02006553 CONDUIT    703.50     0  03:31      0.78    0.83    1.00
  YS02006558YS02006561 CONDUIT    982.29     0  03:00      3.47    2.17    1.00
  YS02001633YS02163601 CONDUIT    397.39     0  02:34      0.51    0.42    1.00
  YS02001644YS02001647 CONDUIT    709.96     0  03:06      0.90    0.42    1.00
  YS02001745YS02001748 CONDUIT    558.79     0  02:26      1.47    0.22    0.96
  YS02001748YS02001751 CONDUIT    354.98     0  02:17      1.06    0.18    1.00
  YS02001751YS02001754 CONDUIT    341.92     0  03:01      0.92    0.16    1.00
  YS02001754YS02001757 CONDUIT    341.03     0  03:01      0.43    0.14    1.00
  YS02001882YS02001884 CONDUIT     40.41     0  02:36      0.13    0.05    1.00
  YS02001884YS02001887 CONDUIT     73.71     0  02:36      0.09    0.10    1.00
  YS02001890YS02001895 CONDUIT    494.94     0  03:00      0.63    0.23    1.00
  YS02001895YS02001898 CONDUIT    495.36     0  03:01      0.63    0.86    1.00
  YS02001898YS02001901 CONDUIT    495.74     0  03:01      0.63    0.32    1.00
  YS02001901YS02001904 CONDUIT    495.87     0  03:01      0.63    0.77    1.00
  YS02001904YS02001907 CONDUIT    495.75     0  03:01      0.63    0.17    1.00
  YS02001887YS02001890 CONDUIT    495.20     0  03:01      0.63    0.85    1.00
  YS02001652YS02001649 CONDUIT    373.63     0  03:01      0.63    0.19    1.00
  YS02001655YS02001652 CONDUIT    372.80     0  03:01      0.98    0.18    1.00
  YS02001658YS02001655 CONDUIT    382.51     0  02:18      1.22    0.16    1.00
  YS02001661YS02001658 CONDUIT    623.85     0  02:23      1.55    0.24    1.00
  YS02001664YS02001661 CONDUIT    621.35     0  02:38      1.43    0.19    0.77
  YSB1154YSB6556       CONDUIT     25.83     0  03:01      0.17    0.05    0.59
  YSB1174YSB1171       CONDUIT     20.15     0  03:01      0.07    0.03    0.70
  YSB1171HS02004479    CONDUIT     44.91     0  03:02      0.54    0.03    0.55
  HS02004881HS02006253 CONDUIT     84.16     0  03:01      2.17    0.02    0.52
  YS02001793JiankangQianchi CONDUIT   1135.95     0  02:04     17.53    0.09    1.00
  YS02001757CaochengTiaoxuchi CONDUIT   1579.36     0  02:35      2.02    0.69    1.00
  WSF200WS02003060     CONDUIT    724.33     0  03:11      1.85    0.16    0.39
  1                    CONDUIT   1128.19     0  03:13      3.44    0.39    0.44
  CC-Pump-1            PUMP       200.00     0  03:10              1.00
  CC-Pump-2            PUMP       200.00     0  04:50              1.00
  JK-Pump-1            PUMP       300.00     0  00:00              1.00
  JK-Pump-2            PUMP       683.00     0  00:00              1.00
  XR-Pump-1            PUMP        95.00     0  00:00              1.00
  XR-Pump-2            PUMP        95.00     0  00:00              1.00
  XR-Pump-3            PUMP        95.00     0  00:00              1.00
  XR-Pump-4            PUMP        95.00     0  00:00              1.00
  
  
  ***************************
  Flow Classification Summary
  ***************************
  
  -------------------------------------------------------------------------------------
                      Adjusted    ---------- Fraction of Time in Flow Class ---------- 
                       /Actual         Up    Down  Sub   Sup   Up    Down  Norm  Inlet 
  Conduit               Length    Dry  Dry   Dry   Crit  Crit  Crit  Crit  Ltd   Ctrl  
  -------------------------------------------------------------------------------------
  WS02003066WSF200        1.00   0.01  0.05  0.00  0.00  0.94  0.00  0.00  0.47  0.00
  WS02006287WS02006284    1.00   0.03  0.01  0.00  0.66  0.31  0.00  0.00  0.62  0.00
  WS02006284WS02006280    1.00   0.03  0.00  0.00  0.00  0.00  0.00  0.97  0.00  0.00
  WS02006280WS02006229    1.00   0.03  0.00  0.00  0.00  0.00  0.00  0.97  0.00  0.00
  WS02006229WS02006228    1.00   0.00  0.00  0.00  1.00  0.00  0.00  0.00  0.00  0.00
  WS02006256WS02006235    1.00   0.00  0.00  0.00  1.00  0.00  0.00  0.00  0.00  0.00
  WS02006253WS02006251    1.00   0.01  0.02  0.00  0.97  0.00  0.01  0.00  0.00  0.00
  WS02006252WS02006251    1.00   0.19  0.00  0.00  0.10  0.00  0.70  0.00  0.00  0.00
  WS02006251WS02006249    1.00   0.00  0.00  0.00  1.00  0.00  0.00  0.00  0.20  0.00
  WS02006249WS02006248    1.00   0.00  0.01  0.00  0.92  0.00  0.07  0.00  0.00  0.00
  WS02006248WS02006247    1.00   0.01  0.00  0.00  0.98  0.00  0.00  0.01  0.12  0.00
  WS02006247WS02006245    1.00   0.01  0.00  0.00  0.97  0.00  0.00  0.02  0.00  0.00
  WS02006245WS02006243    1.00   0.00  0.00  0.00  0.96  0.00  0.00  0.04  0.02  0.00
  WS02006243WS02006242    1.00   0.00  0.00  0.00  1.00  0.00  0.00  0.00  0.22  0.00
  WS02006242WS02006240    1.00   0.00  0.00  0.00  1.00  0.00  0.00  0.00  0.00  0.00
  WS02006240WS02006239    1.00   0.00  0.00  0.00  0.95  0.00  0.00  0.05  0.01  0.00
  WS02006239WS02006238    1.00   0.00  0.00  0.00  1.00  0.00  0.00  0.00  0.14  0.00
  WS02006238WS02006235    1.00   0.00  0.00  0.00  1.00  0.00  0.00  0.00  0.00  0.00
  WS02006235WS02006234    1.00   0.00  0.00  0.00  0.96  0.00  0.04  0.00  0.00  0.00
  WS02006234WS02006232    1.00   0.00  0.00  0.00  1.00  0.00  0.00  0.00  0.10  0.00
  WS02006232WS02006231    1.00   0.00  0.00  0.00  1.00  0.00  0.00  0.00  0.00  0.00
  WS02006231WS02006230    1.00   0.00  0.00  0.00  0.75  0.00  0.25  0.00  0.00  0.00
  WS02006230WS02006229    1.00   0.00  0.00  0.00  1.00  0.00  0.00  0.00  0.01  0.00
  WS02006228WS02006109    1.00   0.00  0.00  0.00  1.00  0.00  0.00  0.00  0.00  0.00
  WS02006116WS02004401    1.00   0.01  0.00  0.00  0.99  0.00  0.00  0.00  0.01  0.00
  WS02006115WS02006116    1.00   0.01  0.00  0.00  0.97  0.00  0.00  0.02  0.01  0.00
  WS02006113WS02006111    1.00   0.01  0.00  0.00  0.00  0.99  0.00  0.00  0.15  0.00
  WS02006112WS02006115    1.00   0.01  0.00  0.00  0.99  0.00  0.00  0.00  0.00  0.00
  WS02006111WS02006112    1.00   0.01  0.00  0.00  0.99  0.00  0.00  0.00  0.91  0.00
  WS02006110WS02006113    1.00   0.00  0.00  0.00  0.99  0.00  0.00  0.00  0.00  0.00
  WS02006109WS02006110    1.00   0.00  0.00  0.00  1.00  0.00  0.00  0.00  0.00  0.00
  WS02004411WS02004412    1.00   0.05  0.00  0.00  0.95  0.00  0.00  0.00  0.00  0.00
  WS02004401WS02004402    1.00   0.01  0.00  0.00  0.99  0.00  0.00  0.00  0.01  0.00
  WS02004413WS02003067    1.00   0.05  0.01  0.00  0.00  0.00  0.94  0.00  0.00  0.00
  WS02004412WS02004413    1.00   0.05  0.00  0.00  0.95  0.00  0.00  0.00  0.00  0.00
  WS02004410WS02004411    1.00   0.05  0.00  0.00  0.95  0.00  0.00  0.00  0.00  0.00
  WS02004409WS02004410    1.00   0.05  0.00  0.00  0.95  0.00  0.00  0.00  0.00  0.00
  WS02004407WS02004409    1.00   0.05  0.00  0.00  0.95  0.01  0.00  0.00  0.81  0.00
  WS02004406WS02004407    1.00   0.00  0.05  0.00  0.95  0.00  0.00  0.00  0.00  0.00
  WS02004405WS02004406    1.00   0.00  0.00  0.00  1.00  0.00  0.00  0.00  0.02  0.00
  WS02004404WS02004405    1.00   0.00  0.00  0.00  1.00  0.00  0.00  0.00  0.00  0.00
  WS02004403WS02004404    1.00   0.00  0.01  0.00  0.99  0.00  0.00  0.00  0.02  0.00
  WS02004402WS02004403    1.00   0.01  0.00  0.00  0.99  0.00  0.00  0.00  0.00  0.00
  WS02004139WS02001211    1.00   0.00  0.00  0.00  1.00  0.00  0.00  0.00  0.00  0.00
  WS02004138WS02004139    1.00   0.00  0.00  0.00  1.00  0.00  0.00  0.00  1.00  0.00
  WS02003067WS02003066    1.00   0.06  0.00  0.00  0.94  0.00  0.00  0.00  0.00  0.00
  WS02001213WS02003059    1.00   0.00  0.00  0.00  1.00  0.00  0.00  0.00  0.00  0.00
  WS02001212WS02001213    1.00   0.00  0.00  0.00  0.92  0.00  0.08  0.00  0.00  0.00
  WS02001211WS02001212    1.00   0.00  0.00  0.00  1.00  0.00  0.00  0.00  0.00  0.00
  WS02003072WS02003073    1.00   0.00  0.00  0.00  0.00  0.00  0.00  1.00  0.00  0.00
  WS02003069WS02003072    1.00   0.00  0.00  0.00  1.00  0.00  0.00  0.00  0.09  0.00
  WS02003060WS02003069    1.00   0.00  0.00  0.00  0.99  0.01  0.00  0.00  0.07  0.00
  WS02003059WS02003060    1.00   0.00  0.00  0.00  1.00  0.00  0.00  0.00  0.00  0.00
  HS02004901HS02004770    1.00   0.03  0.00  0.00  0.97  0.00  0.00  0.00  0.00  0.00
  HS02004876HS02004881    1.00   0.01  0.00  0.00  0.93  0.07  0.00  0.00  0.00  0.00
  HS02004870HS02004876    1.00   0.00  0.00  0.00  1.00  0.00  0.00  0.00  0.95  0.00
  HS02004842HS02004848    1.00   0.00  0.03  0.00  0.97  0.00  0.00  0.00  0.55  0.00
  HS02004837HS02004842    1.00   0.00  0.00  0.00  1.00  0.00  0.00  0.00  0.11  0.00
  HS02004830HS02004837    1.00   0.00  0.00  0.00  1.00  0.00  0.00  0.00  0.99  0.00
  HS02004824HS02004830    1.00   0.00  0.00  0.00  1.00  0.00  0.00  0.00  0.00  0.00
  HS02004817HS02004824    1.00   0.00  0.00  0.00  1.00  0.00  0.00  0.00  1.00  0.00
  HS02004770HS02004777    1.00   0.00  0.03  0.00  0.97  0.00  0.00  0.00  0.02  0.00
  HS02004799HS02004480    1.00   0.00  0.01  0.00  0.96  0.00  0.03  0.00  0.00  0.00
  HS02004792HS02004799    1.00   0.00  0.00  0.00  1.00  0.00  0.00  0.00  0.98  0.00
  HS02004788HS02004792    1.00   0.00  0.00  0.00  1.00  0.00  0.00  0.00  0.98  0.00
  HS02004785HS02004788    1.00   0.00  0.00  0.00  1.00  0.00  0.00  0.00  0.00  0.00
  HS02004777HS02004785    1.00   0.00  0.00  0.00  1.00  0.00  0.00  0.00  0.12  0.00
  HS02004480HS02004478    1.00   0.03  0.00  0.00  0.72  0.00  0.00  0.25  0.00  0.00
  HS02004479HS02004480    1.00   0.01  0.00  0.00  0.99  0.00  0.00  0.00  0.11  0.00
  HS02004862HS02004870    1.00   0.00  0.00  0.00  1.00  0.00  0.00  0.00  0.03  0.00
  HS02004848HS02004852    1.00   0.03  0.00  0.00  0.97  0.00  0.00  0.00  0.62  0.00
  HS02004856HS02004862    1.00   0.00  0.04  0.00  0.96  0.00  0.00  0.00  0.83  0.00
  HS02004852HS02004856    1.00   0.03  0.00  0.00  0.97  0.00  0.00  0.00  0.85  0.00
  HS02004802HS02004478    1.00   0.03  0.00  0.00  0.97  0.00  0.00  0.00  0.02  0.00
  HS02004478WS02006287    1.00   0.04  0.00  0.00  0.78  0.19  0.00  0.00  0.64  0.00
  HS02004817HS02004807    1.00   0.00  0.03  0.00  0.97  0.00  0.00  0.00  0.01  0.00
  HS02004807HS02004802    1.00   0.03  0.00  0.00  0.96  0.00  0.00  0.00  0.00  0.00
  YS02001759YS02001757    1.00   0.00  0.00  0.00  1.00  0.00  0.00  0.00  0.16  0.00
  YS02001762YS02001759    1.00   0.00  0.00  0.00  1.00  0.00  0.00  0.00  0.03  0.00
  YS02001765YS02001762    1.00   0.00  0.00  0.00  1.00  0.00  0.00  0.00  0.13  0.00
  YS02001770YS02001767    1.00   0.00  0.00  0.00  1.00  0.00  0.00  0.00  0.00  0.00
  YS02001774YS02001770    1.00   0.00  0.03  0.00  0.97  0.00  0.00  0.00  0.02  0.00
  YS02001779YS02001774    1.00   0.00  0.00  0.00  1.00  0.00  0.00  0.00  0.18  0.00
  YS02001649YS02001757    1.00   0.00  0.00  0.00  1.00  0.00  0.00  0.00  0.16  0.00
  YS02001767YS02001765    1.00   0.00  0.00  0.00  1.00  0.00  0.00  0.00  0.00  0.00
  YS02006561YS02001783    1.00   0.04  0.00  0.00  0.30  0.65  0.00  0.00  0.47  0.00
  YS02001783YS02001784    1.00   0.00  0.05  0.00  0.95  0.00  0.00  0.00  0.01  0.00
  YS02001784YS02001785    1.00   0.00  0.00  0.00  1.00  0.00  0.00  0.00  0.17  0.00
  YS02001788YS02001790    1.00   0.00  0.00  0.00  0.34  0.66  0.00  0.00  0.39  0.00
  YS02001790YS02001791    1.00   0.00  0.00  0.00  0.31  0.69  0.00  0.00  0.50  0.00
  YS02001791YS02001793    1.00   0.00  0.00  0.00  0.34  0.66  0.00  0.00  0.03  0.00
  YS02001910YS02001907    1.00   0.00  0.00  0.00  0.99  0.00  0.00  0.01  0.12  0.00
  YS02001786YS02001788    1.00   0.00  0.00  0.00  0.32  0.68  0.00  0.00  0.00  0.00
  YS02001915YS02001910    1.00   0.00  0.00  0.00  0.99  0.01  0.00  0.00  0.15  0.00
  YS02001918YS02001915    1.00   0.00  0.00  0.00  0.99  0.00  0.00  0.00  0.55  0.00
  YS02001923YS02001920    1.00   0.00  0.00  0.00  1.00  0.00  0.00  0.00  0.84  0.00
  YS02001926YS02001923    1.00   0.00  0.02  0.00  0.12  0.00  0.86  0.00  0.00  0.00
  YS02001929YS02001926    1.00   0.00  0.03  0.00  0.97  0.00  0.00  0.00  0.77  0.00
  YS02001920YS02001918    1.00   0.00  0.00  0.00  1.00  0.00  0.00  0.00  0.00  0.00
  YS02001629YS02163301    1.00   0.04  0.00  0.00  0.96  0.00  0.00  0.00  0.00  0.00
  YS02001619YS02001622    1.00   0.03  0.00  0.00  0.97  0.00  0.00  0.00  0.00  0.00
  YS02001622YS02001625    1.00   0.03  0.00  0.00  0.97  0.00  0.00  0.00  0.04  0.00
  YS02001625YS02001629    1.00   0.03  0.01  0.00  0.94  0.00  0.02  0.00  0.00  0.00
  YS02163301YS02001633    1.00   0.00  0.04  0.00  0.96  0.00  0.00  0.00  0.00  0.00
  YS02163601YS02164001    1.00   0.00  0.02  0.00  0.98  0.00  0.00  0.00  0.00  0.00
  YS02164001YS02001641    1.00   0.00  0.02  0.00  0.98  0.00  0.00  0.00  0.06  0.00
  YS02001641YS02001644    1.00   0.00  0.00  0.00  1.00  0.00  0.00  0.00  0.00  0.00
  YS02001647YS02001649    1.00   0.00  0.04  0.00  0.96  0.00  0.00  0.00  0.01  0.00
  YS02006553YS02006556    1.00   0.00  0.00  0.00  1.00  0.00  0.00  0.00  0.03  0.00
  YS02006556YS02006558    1.00   0.00  0.00  0.00  1.00  0.00  0.00  0.00  0.00  0.00
  YSB6556YSB1171          1.00   0.01  0.02  0.00  0.97  0.00  0.00  0.00  0.00  0.00
  YS02001907YS02006553    1.00   0.00  0.01  0.00  0.99  0.00  0.00  0.00  0.00  0.00
  YS02006558YS02006561    1.00   0.04  0.00  0.00  0.12  0.83  0.00  0.00  0.48  0.00
  YS02001633YS02163601    1.00   0.00  0.00  0.00  1.00  0.00  0.00  0.00  0.15  0.00
  YS02001644YS02001647    1.00   0.00  0.04  0.00  0.96  0.00  0.00  0.00  0.00  0.00
  YS02001745YS02001748    1.00   0.00  0.00  0.00  0.92  0.01  0.00  0.08  0.04  0.00
  YS02001748YS02001751    1.00   0.00  0.00  0.00  0.97  0.03  0.00  0.00  0.15  0.00
  YS02001751YS02001754    1.00   0.00  0.00  0.00  0.95  0.00  0.00  0.05  0.02  0.00
  YS02001754YS02001757    1.00   0.00  0.00  0.00  1.00  0.00  0.00  0.00  0.18  0.00
  YS02001882YS02001884    1.00   0.04  0.00  0.00  0.96  0.00  0.00  0.00  0.00  0.00
  YS02001884YS02001887    1.00   0.02  0.01  0.00  0.97  0.00  0.00  0.00  0.00  0.00
  YS02001890YS02001895    1.00   0.00  0.04  0.00  0.96  0.00  0.00  0.00  0.00  0.00
  YS02001895YS02001898    1.00   0.04  0.00  0.00  0.95  0.00  0.01  0.00  0.00  0.00
  YS02001898YS02001901    1.00   0.04  0.00  0.00  0.96  0.00  0.00  0.00  0.01  0.00
  YS02001901YS02001904    1.00   0.04  0.00  0.00  0.96  0.00  0.00  0.00  0.00  0.00
  YS02001904YS02001907    1.00   0.00  0.04  0.00  0.96  0.00  0.00  0.00  0.00  0.00
  YS02001887YS02001890    1.00   0.00  0.00  0.00  0.99  0.00  0.01  0.00  0.00  0.00
  YS02001652YS02001649    1.00   0.00  0.00  0.00  1.00  0.00  0.00  0.00  0.16  0.00
  YS02001655YS02001652    1.00   0.00  0.00  0.00  0.95  0.00  0.00  0.05  0.02  0.00
  YS02001658YS02001655    1.00   0.00  0.03  0.00  0.94  0.03  0.00  0.00  0.08  0.00
  YS02001661YS02001658    1.00   0.03  0.00  0.00  0.92  0.05  0.00  0.00  0.09  0.00
  YS02001664YS02001661    1.00   0.03  0.00  0.00  0.92  0.04  0.00  0.00  0.19  0.00
  YSB1154YSB6556          1.00   0.03  0.00  0.00  0.97  0.00  0.00  0.00  0.01  0.00
  YSB1174YSB1171          1.00   0.01  0.01  0.00  0.98  0.00  0.00  0.00  0.00  0.00
  YSB1171HS02004479       1.00   0.01  0.00  0.00  0.99  0.00  0.00  0.00  0.10  0.00
  HS02004881HS02006253    1.00   0.01  0.00  0.00  0.72  0.02  0.00  0.25  0.55  0.00
  YS02001793JiankangQianchi    1.00   0.00  0.00  0.00  0.68  0.32  0.00  0.00  0.40  0.00
  YS02001757CaochengTiaoxuchi    1.00   0.00  0.06  0.00  0.94  0.00  0.00  0.00  0.00  0.00
  WSF200WS02003060        1.00   0.00  0.01  0.00  0.96  0.02  0.00  0.00  0.29  0.00
  1                       1.00   0.00  0.00  0.00  0.00  1.00  0.00  0.00  0.49  0.00
  
  
  *************************
  Conduit Surcharge Summary
  *************************
  
  ----------------------------------------------------------------------------
                                                           Hours        Hours 
                         --------- Hours Full --------   Above Full   Capacity
  Conduit                Both Ends  Upstream  Dnstream   Normal Flow   Limited
  ----------------------------------------------------------------------------
  WS02006229WS02006228        3.79      3.91      3.79      5.15         3.79
  WS02006256WS02006235        5.98      5.99      6.71      4.31         0.01
  WS02006253WS02006251        1.53      1.53      1.56      0.01         0.01
  WS02006252WS02006251        1.40      1.40      2.03      1.79         0.01
  WS02006251WS02006249        1.54      1.54      1.58      1.20         1.02
  WS02006249WS02006248        1.55      1.55      1.58      3.81         0.01
  WS02006248WS02006247        1.58      1.58      1.67      0.01         0.01
  WS02006247WS02006245        1.65      1.69      1.65      4.11         1.64
  WS02006245WS02006243        1.68      1.68      1.74      0.28         0.36
  WS02006243WS02006242        1.77      1.77      2.26      0.01         0.01
  WS02006242WS02006240        2.02      2.02      2.53      2.09         0.01
  WS02006240WS02006239        2.12      2.13      2.35      1.27         0.71
  WS02006239WS02006238        2.61      2.63      3.01      1.32         0.91
  WS02006238WS02006235        2.97      2.97      3.25      0.01         0.01
  WS02006235WS02006234        2.38      2.38      2.86      5.97         0.01
  WS02006234WS02006232        2.63      2.63      3.52      1.01         1.02
  WS02006232WS02006231        1.75      1.75      3.52      1.21         0.01
  WS02006231WS02006230        1.52      1.52      1.79      5.97         0.01
  WS02006230WS02006229        4.68      5.04      4.68      6.06         4.68
  WS02006228WS02006109        3.85      4.23      3.85      5.91         3.85
  WS02006116WS02004401        0.24      0.24      0.26      0.01         0.01
  WS02006112WS02006115        0.01      0.01      2.35      0.01         0.01
  WS02006111WS02006112        0.01      0.01      5.30      0.01         0.01
  WS02006110WS02006113        0.01      0.01      4.05      0.01         0.01
  WS02006109WS02006110        2.01      2.01      4.23      2.03         0.01
[...]
  YS02001765YS02001762        5.84      5.84      5.87      0.01         0.01
  YS02001770YS02001767        5.81      5.81      5.81      0.19         0.75
  YS02001774YS02001770        5.80      5.80      5.86      0.01         0.01
  YS02001779YS02001774        5.68      5.68      5.86      0.01         0.01
  YS02001649YS02001757        5.87      5.87      5.98      0.01         0.01
  YS02001767YS02001765        5.81      5.81      5.84      0.01         0.01
  YS02006561YS02001783        0.77      0.77      1.04      0.01         0.01
  YS02001783YS02001784        1.02      1.04      1.02      1.40         1.01
  YS02001784YS02001785        0.96      1.02      0.96      2.38         0.96
  YS02001788YS02001790        0.91      0.91      1.65      0.01         0.01
  YS02001790YS02001791        1.65      1.65      1.74      0.87         0.84
  YS02001791YS02001793        1.74      1.74      2.09      0.01         0.01
  YS02001910YS02001907        1.06      1.06      1.77      0.01         0.01
  YS02001786YS02001788        0.91      0.96      0.91      1.98         0.91
  YS02001915YS02001910        0.89      0.89      1.06      0.01         0.01
  YS02001918YS02001915        0.71      0.71      0.89      0.01         0.01
  YS02001923YS02001920        0.53      0.53      0.74      0.01         0.01
  YS02001920YS02001918        0.71      0.71      0.74      0.01         0.01
  YS02001629YS02163301        5.80      5.80      5.81      0.01         0.01
  YS02001619YS02001622        5.47      5.47      5.51      0.01         0.01
  YS02001622YS02001625        5.50      5.50      5.76      0.01         0.01
  YS02001625YS02001629        5.48      5.48      5.76      0.01         0.01
  YS02163301YS02001633        5.81      5.81      5.84      0.01         0.01
  YS02163601YS02164001        5.84      5.84      5.87      0.01         0.01
  YS02164001YS02001641        5.84      5.84      5.85      0.01         0.03
  YS02001641YS02001644        5.85      5.85      5.85      1.52         1.71
  YS02001647YS02001649        5.75      5.75      5.87      0.01         0.01
  YS02006553YS02006556        1.30      1.30      1.87      0.01         0.01
  YS02006556YS02006558        1.54      1.54      1.94      0.01         0.01
  YS02001907YS02006553        2.41      2.41      2.63      0.01         0.01
  YS02006558YS02006561        0.90      1.26      0.90      2.24         0.90
  YS02001633YS02163601        5.83      5.83      5.87      0.01         0.01
  YS02001644YS02001647        5.75      5.75      5.85      0.01         0.01
  YS02001745YS02001748        0.01      0.01      5.30      0.01         0.01
  YS02001748YS02001751        5.36      5.36      5.48      0.01         0.01
  YS02001751YS02001754        5.48      5.48      5.69      0.01         0.01
  YS02001754YS02001757        5.74      5.74      5.98      0.01         0.01
  YS02001882YS02001884        0.90      0.90      0.93      0.01         0.01
  YS02001884YS02001887        0.97      0.97      0.99      0.01         0.01
  YS02001890YS02001895        0.88      0.88      1.08      0.01         0.01
  YS02001895YS02001898        0.86      0.86      0.88      0.01         0.01
  YS02001898YS02001901        0.88      0.88      0.96      0.01         0.01
  YS02001901YS02001904        0.94      0.94      0.96      0.01         0.01
  YS02001904YS02001907        0.94      0.94      1.89      0.01         0.01
  YS02001887YS02001890        1.02      1.02      1.03      0.01         0.01
  YS02001652YS02001649        5.76      5.76      5.87      0.01         0.01
  YS02001655YS02001652        5.50      5.50      5.73      0.01         0.01
  YS02001658YS02001655        5.33      5.33      5.50      0.01         0.01
  YS02001661YS02001658        0.19      0.19      5.33      0.01         0.01
  YS02001664YS02001661        0.01      0.01      1.08      0.01         0.01
  HS02004881HS02006253        0.01      0.01      1.13      0.01         0.01
  YS02001793JiankangQianchi        1.99      1.99      3.87      0.01         0.01
  YS02001757CaochengTiaoxuchi        5.21      5.21      5.98      0.01         0.01
  
  
  ***************
  Pumping Summary
  ***************
  
  ---------------------------------------------------------------------------------------------------------
                                                  Min       Avg       Max     Total     Power    % Time Off
                        Percent   Number of      Flow      Flow      Flow    Volume     Usage    Pump Curve
  Pump                 Utilized   Start-Ups       LPS       LPS       LPS  10^6 ltr     Kw-hr    Low   High
  ---------------------------------------------------------------------------------------------------------
  CC-Pump-1               59.56           2      0.00    178.13    200.00     2.940      2.92    0.0    0.0
  CC-Pump-2               31.91           5      0.00    103.83    200.00     1.200      1.67    0.0    0.0
  JK-Pump-1               61.70           5      0.00    221.77    300.00     3.726     58.24    0.0    0.0
  JK-Pump-2               55.32           5      0.00    409.15    683.00     6.129     90.41    0.0   96.1
  XR-Pump-1               95.74           3      0.00     93.32     95.00     2.451     22.34    0.0    0.0
  XR-Pump-2               95.74           3      0.00     93.32     95.00     2.451     22.34    0.0    0.0
  XR-Pump-3               95.74           3      0.00     93.32     95.00     2.451     22.34    0.0    0.0
  XR-Pump-4               95.74           3      0.00     93.32     95.00     2.451     22.34    0.0    0.0
  
  
  ***************************
  Link Pollutant Load Summary
  ***************************
  
  ------------------------------------------------------------------------------------------
                                 COD            SS            TN            TP         NH4-N
  Link                            kg            kg            kg            kg            kg
  ------------------------------------------------------------------------------------------
  WS02003066WSF200           802.259      1471.315        21.477         1.889        11.350
  WS02006287WS02006284       268.019       498.125         9.345         0.943         5.213
  WS02006284WS02006280       268.504       498.904         9.392         0.949         5.243
  WS02006280WS02006229       268.473       498.846         9.391         0.948         5.242
  WS02006229WS02006228       809.104      1483.304        21.142         1.828        11.101
  WS02006256WS02006235       198.693       363.363         4.450         0.349         2.259
  WS02006253WS02006251        49.889        96.142         1.148         0.088         0.575
  WS02006252WS02006251       328.898       590.854         6.950         0.500         3.418
  WS02006251WS02006249       373.398       677.473         8.003         0.583         3.950
  WS02006249WS02006248       350.793       636.615         7.520         0.548         3.712
  WS02006248WS02006247       350.544       636.203         7.517         0.548         3.710
  WS02006247WS02006245       350.072       635.362         7.506         0.547         3.705
  WS02006245WS02006243       349.590       634.592         7.491         0.546         3.697
  WS02006243WS02006242       349.282       634.066         7.486         0.546         3.695
  WS02006242WS02006240       348.515       632.755         7.467         0.544         3.685
  WS02006240WS02006239       348.668       633.151         7.468         0.544         3.685
  WS02006239WS02006238       349.824       635.244         7.502         0.547         3.704
  WS02006238WS02006235       350.234       635.854         7.517         0.549         3.713
  WS02006235WS02006234       544.626       991.381        11.861         0.889         5.917
  WS02006234WS02006232       544.053       990.385        11.851         0.889         5.912
  WS02006232WS02006231       543.201       988.889        11.830         0.887         5.902
  WS02006231WS02006230       542.511       987.660        11.815         0.886         5.895
  WS02006230WS02006229       541.580       986.103        11.786         0.883         5.878
  WS02006228WS02006109       807.927      1481.271        21.107         1.825        11.082
  WS02006116WS02004401       817.638      1498.330        21.848         1.918        11.539
  WS02006115WS02006116       819.176      1501.014        21.890         1.922        11.562
  WS02006113WS02006111       813.267      1489.408        21.820         1.918        11.536
  WS02006112WS02006115       820.599      1503.496        21.938         1.926        11.588
  WS02006111WS02006112       812.753      1488.495        21.808         1.917        11.530
  WS02006110WS02006113       813.850      1490.419        21.841         1.920        11.547
  WS02006109WS02006110       815.075      1492.526        21.887         1.924        11.573
  WS02004411WS02004412       806.221      1478.216        21.610         1.902        11.424
  WS02004401WS02004402       816.139      1495.717        21.801         1.914        11.513
  WS02004413WS02003067       803.027      1472.669        21.496         1.891        11.360
  WS02004412WS02004413       804.769      1475.676        21.570         1.898        11.402
  WS02004410WS02004411       807.458      1480.382        21.643         1.905        11.441
  WS02004409WS02004410       808.703      1482.558        21.679         1.908        11.460
  WS02004407WS02004409       809.810      1484.497        21.705         1.910        11.474
  WS02004406WS02004407       810.214      1485.204        21.710         1.910        11.475
  WS02004405WS02004406       812.218      1488.654        21.792         1.918        11.522
  WS02004404WS02004405       813.667      1491.240        21.801         1.918        11.523
  WS02004403WS02004404       813.417      1490.969        21.720         1.906        11.470
  WS02004402WS02004403       814.680      1493.171        21.760         1.910        11.492
  WS02004139WS02001211      1386.178      2284.099       115.200        14.107        71.139
  WS02004138WS02004139      1392.826      2295.072       115.738        14.172        71.471
  WS02003067WS02003066       802.462      1471.674        21.484         1.890        11.354
  WS02001213WS02003059      1418.886      2335.701       118.557        14.530        73.248
  WS02001212WS02001213      1428.677      2351.758       119.382        14.631        73.758
  WS02001211WS02001212      1430.321      2354.446       119.522        14.648        73.844
  WS02003072WS02003073      2320.559      3965.042       149.958        17.665        90.816
  WS02003069WS02003072      2325.769      3973.674       150.353        17.713        91.059
  WS02003060WS02003069      2328.591      3978.477       150.516        17.732        91.156
  WS02003059WS02003060      1415.789      2330.559       118.314        14.500        73.098
  HS02004901HS02004770        10.270        19.476         0.195         0.015         0.091
  HS02004876HS02004881        37.314        72.570         0.843         0.062         0.416
  HS02004870HS02004876        28.157        54.621         0.677         0.051         0.338
  HS02004842HS02004848         5.467        10.276         0.115         0.008         0.053
  HS02004837HS02004842        10.072        17.581         0.584         0.067         0.347
  HS02004830HS02004837        65.637       112.699         4.556         0.546         2.785
  HS02004824HS02004830        66.387       113.901         4.628         0.555         2.830
  HS02004817HS02004824        88.203       156.968         5.083         0.584         3.051
  HS02004770HS02004777        39.293        75.459         0.819         0.055         0.377
  HS02004799HS02004480       131.394       245.337         3.680         0.335         1.932
  HS02004792HS02004799       119.074       220.637         3.496         0.327         1.853
  HS02004788HS02004792        68.390       126.844         2.388         0.235         1.309
  HS02004785HS02004788        40.729        77.751         0.969         0.074         0.471
  HS02004777HS02004785        40.056        76.659         0.909         0.067         0.434
  HS02004480HS02004478       165.927       312.543         4.243         0.374         2.195
  HS02004479HS02004480        38.139        72.963         0.884         0.079         0.462
  HS02004862HS02004870        21.014        40.112         0.536         0.043         0.270
  HS02004848HS02004852         8.057        15.278         0.167         0.011         0.077
  HS02004856HS02004862        14.070        27.337         0.284         0.019         0.133
  HS02004852HS02004856         8.063        15.289         0.167         0.011         0.077
  HS02004802HS02004478       102.879       186.872         5.162         0.575         3.055
  HS02004478WS02006287       268.221       498.466         9.362         0.945         5.224
  HS02004817HS02004807        86.883       154.851         4.956         0.568         2.972
  HS02004807HS02004802       103.107       187.228         5.194         0.580         3.075
  YS02001759YS02001757       309.098       560.260         6.229         0.431         3.046
  YS02001762YS02001759       161.802       294.907         3.436         0.242         1.700
  YS02001765YS02001762       162.425       296.652         3.467         0.245         1.718
  YS02001770YS02001767       163.637       300.730         3.313         0.220         1.611
  YS02001774YS02001770       205.105       393.023         3.976         0.263         1.923
  YS02001779YS02001774       204.090       390.951         4.064         0.277         1.985
  YS02001649YS02001757       340.135       607.908         6.808         0.471         3.262
  YS02001767YS02001765       163.658       299.507         3.505         0.248         1.739
  YS02006561YS02001783       936.064      1716.639        19.832         1.488         9.898
  YS02001783YS02001784       935.932      1716.428        19.828         1.488         9.895
  YS02001784YS02001785       943.251      1728.154        20.540         1.577        10.341
  YS02001788YS02001790       943.823      1729.079        20.612         1.586        10.387
  YS02001790YS02001791       944.859      1730.770        20.712         1.599        10.449
  YS02001791YS02001793       944.769      1730.603        20.708         1.599        10.447
  YS02001910YS02001907       330.111       599.224         8.233         0.642         4.254
  YS02001786YS02001788       943.435      1728.457        20.568         1.581        10.359
  YS02001915YS02001910       330.200       599.363         8.189         0.636         4.224
  YS02001918YS02001915       159.931       277.985         4.661         0.434         2.538
  YS02001923YS02001920       137.643       241.468         2.676         0.188         1.303
  YS02001926YS02001923       136.674       239.890         2.595         0.178         1.253
  YS02001929YS02001926       136.170       239.029         2.555         0.174         1.228
  YS02001920YS02001918       157.908       274.007         4.593         0.427         2.500
  YS02001629YS02163301       103.552       183.488         2.172         0.140         1.012
  YS02001619YS02001622       146.394       262.928         3.031         0.197         1.414
  YS02001622YS02001625       145.236       261.099         3.003         0.195         1.401
  YS02001625YS02001629       104.645       185.297         2.196         0.142         1.023
  YS02163301YS02001633       103.273       183.019         2.164         0.140         1.010
  YS02163601YS02164001       362.069       646.257         7.116         0.502         3.404
  YS02164001YS02001641       361.581       645.433         7.097         0.501         3.393
  YS02001641YS02001644       361.824       645.768         7.096         0.500         3.392
  YS02001647YS02001649       389.763       705.024         7.695         0.533         3.671
  YS02006553YS02006556       657.583      1200.296        14.235         1.095         7.179
  YS02006556YS02006558       657.554      1200.231        14.203         1.090         7.158
  YSB6556YSB1171              21.949        42.191         0.451         0.038         0.229
  YS02001907YS02006553       657.706      1200.548        14.248         1.097         7.188
  YS02006558YS02006561       936.080      1716.661        19.832         1.488         9.898
  YS02001633YS02163601       362.760       647.328         7.096         0.498         3.387
  YS02001644YS02001647       395.152       714.681         7.788         0.539         3.715
  YS02001745YS02001748       210.027       386.394         4.722         0.329         2.357
  YS02001748YS02001751       208.125       382.784         4.766         0.339         2.393
  YS02001751YS02001754       207.149       381.183         4.747         0.338         2.385
  YS02001754YS02001757       207.915       382.336         4.911         0.360         2.491
  YS02001882YS02001884         2.519         4.335         0.051         0.004         0.026
  YS02001884YS02001887         6.925        12.270         0.135         0.010         0.067
  YS02001890YS02001895       389.432       720.585         7.189         0.539         3.508
  YS02001895YS02001898       389.245       720.321         7.182         0.539         3.504
  YS02001898YS02001901       389.028       719.950         7.177         0.538         3.502
  YS02001901YS02001904       388.873       719.727         7.184         0.540         3.507
  YS02001904YS02001907       389.080       720.037         7.237         0.547         3.541
  YS02001887YS02001890       390.241       721.800         7.243         0.546         3.541
  YS02001652YS02001649       154.587       282.729         3.154         0.227         1.478
  YS02001655YS02001652       155.059       283.509         3.166         0.228         1.485
  YS02001658YS02001655       154.421       282.505         3.076         0.216         1.427
  YS02001661YS02001658       158.701       290.206         3.162         0.222         1.466
  YS02001664YS02001661       177.196       320.860         3.574         0.250         1.655
  YSB1154YSB6556              21.531        41.525         0.402         0.032         0.198
  YSB1174YSB1171              14.652        28.287         0.298         0.024         0.149
  YSB1171HS02004479           38.098        72.897         0.887         0.079         0.465
  HS02004881HS02006253        42.253        82.508         0.926         0.067         0.455
  YS02001793JiankangQianchi       949.066      1737.617        20.894         1.618        10.554
  YS02001757CaochengTiaoxuchi       575.968      1024.090        12.300         0.881         6.047
  WSF200WS02003060           802.285      1471.347        21.495         1.892        11.362
  1                         2326.329      3973.952       150.650        17.754        91.255
  CC-Pump-1                  233.744       419.933         4.940         0.356         2.429
  CC-Pump-2                   95.162       170.932         2.011         0.145         0.989
  JK-Pump-1                  242.080       444.440         5.373         0.420         2.722
  JK-Pump-2                  468.748       873.069         9.750         0.732         4.855
  XR-Pump-1                  349.180       575.361        29.018         3.553        17.919
  XR-Pump-2                  349.180       575.361        29.018         3.553        17.919
  XR-Pump-3                  349.180       575.361        29.018         3.553        17.919
  XR-Pump-4                  349.180       575.361        29.018         3.553        17.919
  

  Analysis begun on:  Tue Jul 13 17:28:46 2021
  Analysis ended on:  Tue Jul 13 17:28:49 2021
  Total elapsed time: 00:00:03