
  EPA STORM WATER MANAGEMENT MODEL - VERSION 5.1 (Build 5.3.0.dev0)
  --------------------------------------------------------------

  WARNING 04: minimum elevation drop used for Conduit WS02004404WS02004405
  WARNING 03: negative offset ignored for Link YS02001904YS02001907
  
  *********************************************************
  NOTE: The summary statistics displayed in this report are
  based on results found at every computational time step,  
  not just on results from each reporting time step.
  *********************************************************
  
  ****************
  Analysis Options
  ****************
  Flow Units ............... LPS
  Process Models:
    Rainfall/Runoff ........ YES
    RDII ................... NO
    Snowmelt ............... NO
    Groundwater ............ NO
    Flow Routing ........... YES
    Ponding Allowed ........ NO
    Water Quality .......... YES
  Infiltration Method ...... HORTON
  Flow Routing Method ...... DYNWAVE
  Surcharge Method ......... EXTRAN
  Starting Date ............ 08/28/2015 08:00:00
  Ending Date .............. 08/28/2015 15:50:00
  Antecedent Dry Days ...... 8.0
  Report Time Step ......... 00:01:00
  Wet Time Step ............ 00:01:00
  Dry Time Step ............ 00:01:00
  Routing Time Step ........ 5.00 sec
  Variable Time Step ....... YES
  Maximum Trials ........... 8
  Number of Threads ........ 4
  Head Tolerance ........... 0.001500 m
  
  
  **************************        Volume         Depth
  Runoff Quantity Continuity     hectare-m            mm
  **************************     ---------       -------
  Total Precipitation ......         5.556        12.164
  Evaporation Loss .........         0.000         0.000
  Infiltration Loss ........         1.002         2.194
  Surface Runoff ...........         3.688         8.075
  Final Storage ............         0.866         1.897
  Continuity Error (%) .....        -0.019
  
  
  **************************           COD            SS            TN            TP         NH4-N
  Runoff Quality Continuity             kg            kg            kg            kg            kg
  **************************    ----------    ----------    ----------    ----------    ----------
  Initial Buildup ..........     41378.656     70582.865      1804.177       168.684      1032.807
  Surface Buildup ..........        19.275        34.271         2.335         0.213         1.362
  Wet Deposition ...........         0.000         0.000         0.000         0.000         0.000
  Sweeping Removal .........         0.000         0.000         0.000         0.000         0.000
  Infiltration Loss ........        84.023       157.502         1.599         0.111         0.761
  BMP Removal ..............         0.000         0.000         0.000         0.000         0.000
  Surface Runoff ...........      3122.074      5752.154        60.620         4.098        28.771
  Remaining Buildup ........     38190.779     64705.500      1744.271       164.686      1004.628
  Continuity Error (%) .....         0.003         0.003         0.001         0.001         0.001
  
  
  **************************        Volume        Volume
  Flow Routing Continuity        hectare-m      10^6 ltr
  **************************     ---------     ---------
  Dry Weather Inflow .......         0.616         6.165
  Wet Weather Inflow .......         3.687        36.871
  Groundwater Inflow .......         0.000         0.000
  RDII Inflow ..............         0.000         0.000
  External Inflow ..........         0.102         1.024
  External Outflow .........         2.055        20.546
  Flooding Loss ............         1.925        19.250
  Evaporation Loss .........         0.000         0.000
  Exfiltration Loss ........         0.000         0.000
  Initial Stored Volume ....         0.076         0.761
  Final Stored Volume ......         0.630         6.297
  Continuity Error (%) .....        -2.841
  
  
  **************************           COD            SS            TN            TP         NH4-N
  Quality Routing Continuity            kg            kg            kg            kg            kg
  **************************    ----------    ----------    ----------    ----------    ----------
  Dry Weather Inflow .......      1541.201      2465.922       147.955        18.494        92.472
  Wet Weather Inflow .......      3121.423      5751.097        60.606         4.097        28.764
  Groundwater Inflow .......         0.000         0.000         0.000         0.000         0.000
  RDII Inflow ..............         0.000         0.000         0.000         0.000         0.000
  External Inflow ..........       183.418       293.469        17.608         2.201        11.005
  External Outflow .........      2374.092      4061.770       151.686        17.829        91.771
  Flooding Loss ............      1785.998      3274.856        47.742         4.245        25.318
  Exfiltration Loss ........         0.000         0.000         0.000         0.000         0.000
  Mass Reacted .............         0.000         0.000         0.000         0.000         0.000
  Initial Stored Mass ......         0.000         0.000         0.000         0.000         0.000
  Final Stored Mass ........       503.948       856.297        22.733         2.425        13.175
  Continuity Error (%) .....         3.756         3.731         1.772         1.183         1.495
  
  
  *************************
  Highest Continuity Errors
  *************************
  Node HS02004842 (14.53%)
  Node JK-storage (-12.61%)
  Node YS02001884 (10.82%)
  Node YSB1171 (2.74%)
  Node HS02004817 (2.73%)
  
  
  ***************************
  Time-Step Critical Elements
  ***************************
  Link WS02006252WS02006251 (70.01%)
  Link WS02006280WS02006229 (8.42%)
  Link WS02006238WS02006235 (4.58%)
  Link WS02004404WS02004405 (4.56%)
  Link YS02001793JiankangQianchi (2.83%)
  
  
  ********************************
  Highest Flow Instability Indexes
  ********************************
  Link WS02006113WS02006111 (37)
  Link YS02001619YS02001622 (36)
  Link YS02163301YS02001633 (36)
  Link YS02163601YS02164001 (36)
  Link YS02001629YS02163301 (36)
  
  
  *************************
  Routing Time Step Summary
  *************************
  Minimum Time Step           :     0.07 sec
  Average Time Step           :     1.02 sec
  Maximum Time Step           :     5.00 sec
  Percent in Steady State     :    -0.00
  Average Iterations per Step :     4.45
  Percent Not Converging      :    20.98
  
  
  ***************************
  Subcatchment Runoff Summary
  ***************************
  
  ------------------------------------------------------------------------------------------------------------------------------
                            Total      Total      Total      Total     Imperv       Perv      Total       Total     Peak  Runoff
                           Precip      Runon       Evap      Infil     Runoff     Runoff     Runoff      Runoff   Runoff   Coeff
  Subcatchment                 mm         mm         mm         mm         mm         mm         mm    10^6 ltr      LPS
  ------------------------------------------------------------------------------------------------------------------------------
  sub0                      12.16       0.00       0.00       0.65      11.27       0.20      11.47        0.01     1.99   0.943
  sub1                      12.16       0.00       0.00       1.12      10.73       0.22      10.95        0.07    14.96   0.900
  sub2                      12.16       0.00       0.00       4.23       7.58       0.27       7.85        0.07    15.08   0.646
  sub3                      12.16       0.00       0.00       4.29       7.54       0.21       7.75        0.17    34.61   0.637
  sub4                      12.16       0.00       0.00       1.19      10.57       0.14      10.71        0.22    42.34   0.881
  sub5                      12.16       0.00       0.00       0.69      11.21       0.16      11.38        0.13    26.18   0.935
  sub7                      12.16       0.00       0.00       0.88      11.01       0.22      11.22        0.04     7.95   0.923
  sub8                      12.16       0.00       0.00       0.89      11.00       0.21      11.20        0.07    14.89   0.921
  sub9                      12.16       0.00       0.00       0.89      10.99       0.21      11.20        0.05    11.18   0.921
  sub10                     12.16       0.00       0.00       0.79      11.10       0.18      11.28        0.12    25.49   0.928
  sub11                     12.16       0.00       0.00       0.78      11.12       0.19      11.31        0.13    27.35   0.930
  sub12                     12.16       0.00       0.00       1.27      10.53       0.31      10.85        0.09    20.52   0.892
  sub14                     12.16       0.00       0.00       0.89      10.99       0.20      11.20        0.11    22.08   0.920
  sub15                     12.16       0.00       0.00       3.28       8.45       0.37       8.82        0.15    32.49   0.725
  sub16                     12.16       0.00       0.00       3.51       8.11       0.50       8.61        0.09    20.36   0.708
  sub17                     12.16       0.00       0.00       3.41       8.23       0.48       8.71        0.07    16.72   0.716
  sub22                     12.16       0.00       0.00       4.80       6.89       0.43       7.32        0.46   102.62   0.602
  sub23                     12.16       0.00       0.00       4.05       7.62       0.45       8.07        0.38    85.35   0.663
  sub60                     12.16       0.00       0.00       1.42       8.82       0.04       8.86        2.69   336.84   0.729
  sub61                     12.16       0.00       0.00       2.01       8.94       0.06       9.00        2.78   399.45   0.740
  sub62                     12.16       0.00       0.00       0.92       9.73       0.05       9.78        3.01   415.79   0.804
  sub63                     12.16       0.00       0.00       3.46       7.82       0.06       7.88        2.39   361.21   0.648
  sub64                     12.16       0.00       0.00       1.78       8.47       0.04       8.51        2.59   320.97   0.699
  sub65                     12.16       0.00       0.00       1.54       8.61       0.04       8.65        2.66   326.54   0.711
  sub66                     12.16       0.00       0.00       3.49       7.26       0.04       7.30        2.24   290.53   0.600
  sub67                     12.16       0.00       0.00       0.91      10.24       0.07      10.31        3.18   494.23   0.848
  sub68                     12.16       0.00       0.00       1.64       9.40       0.06       9.46        2.91   432.52   0.778
  sub69                     12.16       0.00       0.00       1.73       9.72       0.09       9.82        2.29   383.95   0.807
  sub70                     12.16      10.02       0.00       6.98      13.09       0.56      13.65        3.12   394.93   0.615
  sub71                     12.16       0.00       0.00       0.93       9.48       0.05       9.53        2.25   296.34   0.783
  sub72                     12.16       0.00       0.00       0.83       7.62       0.02       7.64        1.56   151.13   0.628
  1                         12.16      13.29       0.00       1.37      14.64       3.94      18.57        4.36   399.24   0.730
  2                         12.16       0.00       0.00       3.02       2.89       1.65       4.55        1.82   245.52   0.374
  
  
  ****************************
  Subcatchment Washoff Summary
  ****************************
  
  ------------------------------------------------------------------------------------------
                                 COD            SS            TN            TP         NH4-N
  Subcatchment                    kg            kg            kg            kg            kg
  ------------------------------------------------------------------------------------------
  sub0                         2.176         4.147         0.037         0.003         0.018
  sub1                         9.268        18.138         0.173         0.012         0.083
  sub2                         5.563        10.570         0.119         0.008         0.054
  sub3                        13.747        25.918         0.288         0.019         0.132
  sub4                        21.530        42.606         0.429         0.026         0.205
  sub5                        21.300        41.103         0.378         0.029         0.183
  sub7                         4.748         9.424         0.090         0.006         0.043
  sub8                         7.142        14.500         0.143         0.008         0.069
  sub9                         6.100        12.212         0.118         0.007         0.057
  sub10                       17.532        34.266         0.321         0.023         0.155
  sub11                       17.086        33.770         0.320         0.022         0.154
  sub12                       14.392        27.890         0.260         0.019         0.125
  sub14                       13.021        25.823         0.247         0.016         0.119
  sub15                       16.182        30.744         0.313         0.023         0.146
  sub16                       10.318        19.555         0.197         0.015         0.092
  sub17                        9.471        17.789         0.175         0.014         0.082
  sub22                       48.821        90.813         0.932         0.070         0.434
  sub23                       29.138        56.181         0.627         0.041         0.287
  sub60                      203.703       376.194         4.083         0.248         1.956
  sub61                      251.300       461.579         4.699         0.320         2.261
  sub62                      262.762       491.326         5.157         0.324         2.474
  sub63                      185.047       334.594         3.739         0.261         1.731
  sub64                      253.867       452.095         4.687         0.339         2.235
  sub65                      260.106       465.192         4.834         0.344         2.309
  sub66                      146.558       263.078         3.037         0.197         1.417
  sub67                      388.205       718.566         6.963         0.510         3.363
  sub68                      276.714       513.393         5.318         0.356         2.539
  sub69                      247.676       464.012         4.658         0.325         2.225
  sub70                      413.256       778.342         8.287         0.572         3.877
  sub71                      173.740       327.842         3.597         0.206         1.720
  sub72                      136.329       239.316         2.558         0.174         1.230
  1                          280.724       531.718         5.751         0.398         2.660
  2                           35.485        61.812         1.030         0.062         0.437
  ------------------------------------------------------------------------------------------
  System                    3783.006      6994.507        73.566         4.996        34.873
  
  
  ******************
  Node Depth Summary
  ******************
  
  ---------------------------------------------------------------------------------
                                 Average  Maximum  Maximum  Time of Max    Reported
                                   Depth    Depth      HGL   Occurrence   Max Depth
  Node                 Type       Meters   Meters   Meters  days hr:min      Meters
  ---------------------------------------------------------------------------------
  WS02001211           JUNCTION     0.77     0.83     5.67     0  03:10        0.83
  WS02001212           JUNCTION     0.48     0.55     5.62     0  03:10        0.55
  WS02001213           JUNCTION     0.73     0.82     5.58     0  03:09        0.82
  WS02003069           JUNCTION     0.54     0.67     5.26     0  03:08        0.67
  WS02003072           JUNCTION     0.60     0.72     5.09     0  03:09        0.72
  WS02003073           JUNCTION     0.36     0.45     4.52     0  03:09        0.45
  WS02003060           JUNCTION     0.47     0.60     5.53     0  03:08        0.59
  WS02003066           JUNCTION     0.27     0.36     5.92     0  03:06        0.36
  WS02003059           JUNCTION     0.78     0.88     5.56     0  03:09        0.88
  WS02003067           JUNCTION     0.64     0.79     6.11     0  03:05        0.79
  WS02004401           JUNCTION     0.77     1.14     7.14     0  03:03        1.13
  WS02004402           JUNCTION     0.80     1.14     7.10     0  03:04        1.13
  WS02004403           JUNCTION     0.81     1.12     7.05     0  03:02        1.11
  WS02004404           JUNCTION     0.89     1.17     7.02     0  03:04        1.16
  WS02004406           JUNCTION     0.88     1.12     6.95     0  03:03        1.11
  WS02004409           JUNCTION     0.58     0.86     6.63     0  03:05        0.86
  WS02004410           JUNCTION     0.60     0.86     6.58     0  03:05        0.86
  WS02004411           JUNCTION     0.61     0.85     6.53     0  03:06        0.85
  WS02004412           JUNCTION     0.62     0.84     6.48     0  03:06        0.84
  WS02004413           JUNCTION     0.78     0.98     6.45     0  03:06        0.98
  WS02004405           JUNCTION     0.88     1.15     7.00     0  03:03        1.15
  WS02006109           JUNCTION     0.86     1.30     7.92     0  03:03        1.29
  WS02006110           JUNCTION     0.83     1.14     7.73     0  03:04        1.14
  WS02006111           JUNCTION     0.26     0.65     7.36     0  03:03        0.65
  WS02006112           JUNCTION     0.95     1.42     7.30     0  03:03        1.40
  WS02006113           JUNCTION     0.40     0.64     7.54     0  03:03        0.64
  WS02006115           JUNCTION     0.66     1.09     7.23     0  03:03        1.09
  WS02006116           JUNCTION     0.74     1.14     7.18     0  03:03        1.14
  WS02006230           JUNCTION     0.89     1.51     8.26     0  03:03        1.51
  WS02006231           JUNCTION     0.62     1.21     8.33     0  03:03        1.21
  WS02006232           JUNCTION     0.77     1.36     8.40     0  03:02        1.35
  WS02006234           JUNCTION     0.72     1.32     8.47     0  03:03        1.30
  WS02006235           JUNCTION     0.77     1.36     8.53     0  03:02        1.36
  WS02006238           JUNCTION     0.79     1.39     8.53     0  03:03        1.37
  WS02006240           JUNCTION     0.70     1.28     8.57     0  03:03        1.27
  WS02006242           JUNCTION     0.76     1.34     8.61     0  02:59        1.32
  WS02006243           JUNCTION     0.65     1.24     8.66     0  02:59        1.20
  WS02006245           JUNCTION     0.62     1.24     8.73     0  02:59        1.16
  WS02006247           JUNCTION     0.63     1.25     8.75     0  02:59        1.16
  WS02006248           JUNCTION     0.57     1.10     8.69     0  02:59        1.09
  WS02006249           JUNCTION     0.59     1.09     8.69     0  02:59        1.09
  WS02006239           JUNCTION     0.75     1.34     8.55     0  03:03        1.33
  WS02006251           JUNCTION     0.56     1.28     8.95     0  07:29        1.17
  WS02006252           JUNCTION     0.36     0.83     9.07     0  07:29        0.70
  WS02006253           JUNCTION     0.59     1.42     9.07     0  03:00        1.21
  WS02006256           JUNCTION     1.75     2.35     9.28     0  00:00        2.35
  WS02004138           JUNCTION     0.19     0.20     7.45     0  00:00        0.19
  WS02004139           JUNCTION     0.72     0.77     5.68     0  03:10        0.77
  WS02004407           JUNCTION     0.26     0.37     6.68     0  03:04        0.37
  WS02006228           JUNCTION     0.88     1.43     8.08     0  03:03        1.43
  WS02006229           JUNCTION     0.87     1.48     8.17     0  03:02        1.48
  WS02006280           JUNCTION     0.07     0.20     8.47     0  03:02        0.20
  WS02006284           JUNCTION     0.37     0.56     8.96     0  03:02        0.56
  WS02006287           JUNCTION     0.10     0.30     9.25     0  03:01        0.30
  WSF200               JUNCTION     0.26     0.40     5.63     0  03:06        0.40
  HS02004901           JUNCTION     0.12     0.29    10.12     0  03:01        0.29
  HS02004881           JUNCTION     0.01     0.04     9.07     0  03:01        0.04
  HS02004876           JUNCTION     0.04     0.12     9.15     0  03:01        0.12
  HS02004870           JUNCTION     0.01     0.07     9.35     0  03:01        0.07
  HS02004862           JUNCTION     0.02     0.08     9.46     0  03:01        0.08
  HS02004856           JUNCTION     0.08     0.13     9.55     0  03:01        0.13
  HS02004852           JUNCTION     0.01     0.05     9.56     0  03:01        0.05
  HS02004848           JUNCTION     0.01     0.05     9.65     0  03:01        0.05
  HS02004842           JUNCTION     0.33     0.38     9.65     0  03:01        0.38
  HS02004837           JUNCTION     0.03     0.07     9.65     0  03:01        0.07
  HS02004830           JUNCTION     0.04     0.08     9.55     0  03:01        0.08
  HS02004824           JUNCTION     0.02     0.06     9.47     0  03:01        0.06
  HS02004817           JUNCTION     0.44     0.61     9.45     0  03:01        0.61
  HS02004807           JUNCTION     0.13     0.28     9.45     0  03:01        0.28
  HS02004802           JUNCTION     0.16     0.31     9.44     0  03:01        0.31
  HS02004799           JUNCTION     0.12     0.35     9.56     0  03:01        0.35
  HS02004792           JUNCTION     0.03     0.15     9.67     0  03:01        0.15
  HS02004788           JUNCTION     0.03     0.11    10.01     0  03:01        0.11
  HS02004785           JUNCTION     0.04     0.18    10.09     0  03:01        0.18
  HS02004777           JUNCTION     0.15     0.31    10.11     0  03:01        0.31
  HS02004770           JUNCTION     0.12     0.29    10.12     0  03:01        0.29
  HS02004480           JUNCTION     0.08     0.28     9.52     0  03:01        0.28
  HS02004479           JUNCTION     0.12     0.32     9.52     0  03:01        0.32
  HS02004478           JUNCTION     0.06     0.20     9.42     0  03:01        0.20
  YS02001745           JUNCTION     0.75     0.92     8.43     0  03:01        0.91
  YS02001748           JUNCTION     1.15     1.63     8.71     0  02:26        1.36
  YS02001751           JUNCTION     1.34     1.67     8.55     0  02:27        1.55
  YS02001754           JUNCTION     1.59     1.83     8.44     0  02:59        1.82
  YS02001762           JUNCTION     1.80     2.04     8.44     0  02:59        2.02
  YS02001765           JUNCTION     1.75     1.99     8.44     0  02:59        1.97
  YS02001767           JUNCTION     1.71     1.94     8.43     0  02:59        1.92
  YS02001770           JUNCTION     1.71     1.95     8.44     0  02:18        1.91
  YS02001774           JUNCTION     1.77     2.02     8.45     0  02:18        1.97
  YS02001779           JUNCTION     1.52     1.68     8.37     0  02:18        1.68
  YS02001882           JUNCTION     0.51     1.63     8.35     0  02:47        1.62
  YS02001884           JUNCTION     0.60     1.73     8.35     0  02:47        1.71
  YS02001759           JUNCTION     1.83     2.08     8.45     0  02:59        2.06
  YS02001887           JUNCTION     0.68     1.80     8.34     0  03:00        1.79
  YS02001890           JUNCTION     0.71     1.81     8.32     0  02:47        1.81
  YS02001898           JUNCTION     0.48     1.57     8.30     0  02:47        1.55
  YS02001901           JUNCTION     0.60     1.68     8.29     0  02:47        1.67
  YS02001904           JUNCTION     0.58     1.64     8.27     0  02:47        1.63
  YS02001907           JUNCTION     0.91     1.96     8.25     0  02:47        1.96
  YS02001910           JUNCTION     0.70     1.79     8.29     0  02:48        1.77
  YS02001915           JUNCTION     0.49     1.61     8.32     0  02:48        1.60
  YS02001918           JUNCTION     0.24     1.30     8.36     0  02:48        1.28
  YS02001619           JUNCTION     1.30     1.59     8.52     0  02:27        1.50
  YS02001629           JUNCTION     1.66     1.85     8.40     0  02:27        1.85
  YS02001641           JUNCTION     1.76     1.94     8.37     0  02:35        1.93
  YS02001644           JUNCTION     1.76     1.92     8.35     0  02:34        1.92
  YS02001652           JUNCTION     1.61     2.16     8.76     0  02:40        1.89
  YS02001655           JUNCTION     1.37     2.20     9.05     0  02:20        1.73
  YS02001920           JUNCTION     0.35     1.38     8.39     0  02:48        1.36
  YS02001923           JUNCTION     0.19     1.14     8.40     0  02:48        1.13
  YS02001926           JUNCTION     0.26     0.98     8.43     0  02:48        0.91
  YS02001929           JUNCTION     0.14     0.72     8.41     0  02:48        0.69
  YS02001658           JUNCTION     1.09     2.26     9.40     0  02:40        1.69
  YS02001661           JUNCTION     0.86     2.46     9.86     0  03:56        1.73
  YS02001664           JUNCTION     0.38     0.58     8.50     0  03:53        0.57
  YS02001622           JUNCTION     1.32     1.57     8.48     0  02:27        1.51
  YS02001633           JUNCTION     1.75     1.94     8.40     0  02:59        1.94
  YS02001649           JUNCTION     1.80     2.05     8.44     0  02:37        2.05
  YS02001757           JUNCTION     1.93     2.18     8.44     0  02:58        2.17
  YS02001895           JUNCTION     0.47     1.56     8.31     0  02:47        1.55
  YS02001625           JUNCTION     1.61     1.78     8.38     0  02:27        1.78
  YS02163301           JUNCTION     1.69     1.88     8.40     0  02:59        1.87
  YS02163601           JUNCTION     1.80     1.99     8.39     0  02:35        1.98
  YS02164001           JUNCTION     1.74     1.92     8.38     0  02:35        1.91
  YS02001647           JUNCTION     1.59     1.80     8.41     0  02:38        1.79
  YSB1154              JUNCTION     0.26     0.47     9.52     0  03:01        0.47
  YSB6556              JUNCTION     0.15     0.35     9.52     0  03:01        0.35
  YSB1174              JUNCTION     0.21     0.41     9.52     0  03:01        0.41
  YSB1171              JUNCTION     0.41     0.62     9.52     0  03:01        0.62
  YS02006553           JUNCTION     0.91     1.97     8.25     0  02:56        1.96
  YS02006561           JUNCTION     0.28     1.10     7.76     0  02:47        1.07
  YS02006556           JUNCTION     0.88     1.92     8.24     0  02:58        1.91
  YS02006558           JUNCTION     0.92     1.96     8.23     0  03:00        1.96
  YS02001783           JUNCTION     0.49     1.49     7.63     0  02:47        1.47
  YS02001784           JUNCTION     0.51     1.54     7.61     0  02:43        1.40
  YS02001786           JUNCTION     0.45     1.68     7.71     0  02:43        1.26
  YS02001788           JUNCTION     0.39     1.83     7.81     0  02:43        1.12
  YS02001790           JUNCTION     0.50     1.96     7.60     0  04:37        1.29
  YS02001791           JUNCTION     0.46     2.72     8.19     0  04:36        1.27
  YS02001793           JUNCTION     0.64     3.20     8.03     0  04:34        1.80
  WSC                  OUTFALL      0.36     0.45     1.12     0  03:10        0.45
  JK-storage           STORAGE      2.58     5.80     6.60     0  02:01        5.80
  CC-storage           STORAGE      1.18     1.41     8.41     0  03:05        1.41
  XR-storage           STORAGE      6.74     7.72     5.72     0  02:50        7.72
  
  
  *******************
  Node Inflow Summary
  *******************
  
  -------------------------------------------------------------------------------------------------
                                  Maximum  Maximum                  Lateral       Total        Flow
                                  Lateral    Total  Time of Max      Inflow      Inflow     Balance
                                   Inflow   Inflow   Occurrence      Volume      Volume       Error
  Node                 Type           LPS      LPS  days hr:min    10^6 ltr    10^6 ltr     Percent
  -------------------------------------------------------------------------------------------------
  WS02001211           JUNCTION      7.35   389.47     0  03:16       0.207        9.97       0.413
  WS02001212           JUNCTION      0.00   391.42     0  03:16           0        9.93       0.258
  WS02001213           JUNCTION      0.00   393.17     0  07:48           0         9.9       0.293
  WS02003069           JUNCTION      0.32  1201.69     0  03:08     0.00902        20.6       0.184
  WS02003072           JUNCTION      0.00  1201.63     0  03:09           0        20.6       0.218
  WS02003073           JUNCTION      1.82  1203.62     0  03:09      0.0514        20.6       0.257
  WS02003060           JUNCTION     16.53  1201.41     0  03:08       0.466        20.7       0.171
  WS02003066           JUNCTION      0.00   820.18     0  03:06           0        10.4       0.048
  WS02003059           JUNCTION      0.00   395.94     0  07:49           0        9.87       0.419
  WS02003067           JUNCTION      0.00   819.67     0  03:06           0        10.4       0.098
  WS02004401           JUNCTION      0.00   827.81     0  03:04           0        10.6       0.207
  WS02004402           JUNCTION      0.00   828.16     0  03:04           0        10.6       0.194
  WS02004403           JUNCTION      0.00   828.11     0  03:04           0        10.6       0.177
  WS02004404           JUNCTION      0.16   828.52     0  03:04     0.00457        10.6       0.133
  WS02004406           JUNCTION      0.00   828.31     0  03:04           0        10.5       0.325
  WS02004409           JUNCTION      0.00   827.39     0  03:04           0        10.5       0.173
  WS02004410           JUNCTION      0.00   822.52     0  03:05           0        10.5       0.195
  WS02004411           JUNCTION      0.00   820.25     0  03:05           0        10.5       0.200
  WS02004412           JUNCTION      0.00   819.56     0  03:06           0        10.4       0.214
  WS02004413           JUNCTION      0.00   819.52     0  03:06           0        10.4       0.314
  WS02004405           JUNCTION      0.04   828.81     0  03:04     0.00107        10.6       0.198
  WS02006109           JUNCTION      1.23   820.25     0  03:02      0.0347        10.7       0.194
  WS02006110           JUNCTION      0.00   819.91     0  03:02           0        10.7       0.171
  WS02006111           JUNCTION      0.00   813.06     0  03:03           0        10.6       0.039
  WS02006112           JUNCTION     16.72   826.96     0  03:04      0.0747        10.7       0.283
  WS02006113           JUNCTION      0.00   819.94     0  03:02           0        10.6       0.087
  WS02006115           JUNCTION      0.00   826.98     0  03:04           0        10.7       0.199
  WS02006116           JUNCTION      0.00   827.17     0  03:04           0        10.6       0.169
  WS02006230           JUNCTION     10.28   533.13     0  07:30        0.29        8.51       0.166
  WS02006231           JUNCTION      0.00   522.88     0  07:30           0        8.23       0.093
  WS02006232           JUNCTION      0.00   522.72     0  07:30           0        8.24       0.194
  WS02006234           JUNCTION      0.00   523.16     0  07:33           0        8.25       0.088
  WS02006235           JUNCTION      0.00   523.96     0  07:30           0        8.32       0.118
  WS02006238           JUNCTION      0.00   392.25     0  04:31           0        4.98       0.142
  WS02006240           JUNCTION      0.00   392.22     0  04:30           0        4.94       0.231
  WS02006242           JUNCTION      0.00   392.17     0  04:30           0        4.94       0.276
  WS02006243           JUNCTION      0.00   392.04     0  04:30           0        4.93       0.125
  WS02006245           JUNCTION      0.00   392.39     0  04:30           0        4.93       0.181
  WS02006247           JUNCTION      0.00   392.28     0  04:30           0        4.93       0.139
  WS02006248           JUNCTION      0.00   394.24     0  04:30           0        4.93       0.096
  WS02006249           JUNCTION      0.00   427.02     0  07:29           0        5.15       0.177
  WS02006239           JUNCTION      0.00   392.29     0  04:31           0        4.96       0.166
  WS02006251           JUNCTION      0.08   426.39     0  03:20     0.00217        5.21       0.164
  WS02006252           JUNCTION      0.00   400.00     0  03:40           0        4.74       0.010
  WS02006253           JUNCTION      1.99   125.92     0  02:59     0.00928       0.471       0.713
  WS02006256           JUNCTION      0.00   983.00     0  02:10           0         9.7      -0.009
  WS02004138           JUNCTION      0.00   380.00     0  00:00           0         9.8       0.061
  WS02004139           JUNCTION      0.32   395.85     0  00:00     0.00905        9.81       0.473
  WS02004407           JUNCTION      0.00   828.04     0  03:04           0        10.5       0.074
  WS02006228           JUNCTION      0.00   818.77     0  03:02           0        10.7       0.146
  WS02006229           JUNCTION      0.00   822.87     0  03:02           0        10.7       0.126
  WS02006280           JUNCTION      0.00   413.63     0  03:02           0        2.17       0.008
  WS02006284           JUNCTION      0.10   413.57     0  03:02      0.0027        2.17       0.042
  WS02006287           JUNCTION      0.00   413.23     0  03:01           0        2.17       0.033
  WSF200               JUNCTION      0.00   820.36     0  03:06           0        10.4       0.046
  HS02004901           JUNCTION     20.36    20.36     0  03:01      0.0902      0.0904       1.990
  HS02004881           JUNCTION      7.95    84.20     0  03:01      0.0378        0.41       0.116
  HS02004876           JUNCTION     14.96    76.76     0  03:01      0.0728       0.373       0.148
  HS02004870           JUNCTION     14.89    62.16     0  03:01      0.0716         0.3       0.037
  HS02004862           JUNCTION     15.28    47.69     0  03:01      0.0788       0.229       0.076
  HS02004856           JUNCTION     11.18    32.73     0  03:01      0.0539       0.152       0.960
  HS02004852           JUNCTION      0.00    21.94     0  03:01           0      0.0979       0.059
  HS02004848           JUNCTION     34.61    34.61     0  03:01       0.174       0.174       0.028
  HS02004842           JUNCTION      0.00    12.41     0  03:01           0      0.0895      16.997
  HS02004837           JUNCTION     31.84    43.95     0  03:01       0.303        0.38       0.214
  HS02004830           JUNCTION      0.15    43.86     0  03:01     0.00423        0.37       0.335
  HS02004824           JUNCTION     42.39    85.90     0  03:01       0.225       0.594       0.091
  HS02004817           JUNCTION      0.60    86.28     0  03:01      0.0169        0.61       2.809
  HS02004807           JUNCTION     27.35   112.33     0  03:01       0.131       0.726       0.605
  HS02004802           JUNCTION      0.00   111.37     0  03:01           0       0.723       0.548
  HS02004799           JUNCTION     22.08   258.95     0  03:01       0.107        1.24       0.223
  HS02004792           JUNCTION    102.90   238.00     0  03:01        0.47        1.14       0.036
  HS02004788           JUNCTION     34.16   135.96     0  03:01       0.199       0.669       0.059
  HS02004785           JUNCTION      0.15   103.52     0  03:01     0.00423       0.471       0.106
  HS02004777           JUNCTION      0.03   104.16     0  03:01    0.000846       0.472       1.115
  HS02004770           JUNCTION     85.35   105.11     0  03:01       0.385       0.473       0.659
  HS02004480           JUNCTION      0.00   302.44     0  03:01           0        1.46       0.076
  HS02004479           JUNCTION      0.00    44.88     0  03:02           0       0.232       0.317
  HS02004478           JUNCTION      0.00   413.09     0  03:01           0        2.17       0.014
  YS02001745           JUNCTION    336.84   414.59     0  02:26        2.69         2.7       0.398
  YS02001748           JUNCTION      0.04   577.57     0  02:26     0.00127        2.69       0.804
  YS02001751           JUNCTION      0.01   359.37     0  02:17     0.00031        2.65       0.898
  YS02001754           JUNCTION      0.26   342.71     0  03:01     0.00733        2.64       0.946
  YS02001762           JUNCTION      0.00   291.92     0  02:38           0        1.92       1.117
  YS02001765           JUNCTION      0.00   291.77     0  02:38           0        1.92       1.278
  YS02001767           JUNCTION      0.54   291.75     0  02:38      0.0151        1.94       1.868
  YS02001770           JUNCTION    415.94   565.25     0  03:01        3.01        3.27       0.965
  YS02001774           JUNCTION      0.00   565.64     0  03:01           0        1.58       1.616
  YS02001779           JUNCTION      0.01   565.23     0  03:01    0.000141        1.55       1.001
  YS02001882           JUNCTION      0.00    22.48     0  02:43           0      0.0208      12.336
  YS02001884           JUNCTION      0.00    37.77     0  02:43           0      0.0578      12.137
  YS02001759           JUNCTION    399.49   575.69     0  02:39        2.78         4.4       0.522
  YS02001887           JUNCTION    494.68   494.68     0  03:01        3.19        3.22       0.264
  YS02001890           JUNCTION      0.00   495.61     0  03:01           0        3.18       0.294
  YS02001898           JUNCTION      0.00   495.43     0  03:01           0        3.16       0.094
  YS02001901           JUNCTION      0.00   495.07     0  03:01           0        3.16       0.228
  YS02001904           JUNCTION      0.00   494.95     0  03:00           0        3.16       0.201
  YS02001907           JUNCTION      0.00   949.29     0  03:01           0        7.02       0.347
  YS02001910           JUNCTION      0.00   500.23     0  02:49           0        3.87       0.305
  YS02001915           JUNCTION    296.36   500.26     0  02:49        2.25         3.9       0.160
  YS02001918           JUNCTION      0.00   252.33     0  02:49           0        1.67       0.122
  YS02001619           JUNCTION    290.53   290.53     0  03:01        2.24        2.24       0.545
  YS02001629           JUNCTION      0.00   218.76     0  02:17           0        1.69       1.723
  YS02001641           JUNCTION      0.00   396.75     0  02:35           0        4.25       0.501
  YS02001644           JUNCTION    321.01  1352.75     0  03:01        2.59        9.23       0.279
  YS02001652           JUNCTION      0.00   378.12     0  03:01           0        2.35       0.996
  YS02001655           JUNCTION      0.15   398.66     0  02:18     0.00434        2.37       1.023
  YS02001920           JUNCTION      2.87   251.91     0  02:49      0.0809        1.66       0.181
  YS02001923           JUNCTION      0.04   296.99     0  02:49     0.00106        1.57       0.034
  YS02001926           JUNCTION      0.05   233.82     0  02:48     0.00147        1.56       0.195
  YS02001929           JUNCTION    151.13   151.13     0  03:01        1.56        1.56       0.037
  YS02001658           JUNCTION      0.00   593.41     0  02:23           0        2.41       0.934
  YS02001661           JUNCTION      0.00   650.85     0  02:38           0         2.9      -0.331
  YS02001664           JUNCTION    361.21   361.21     0  03:01        2.38        2.88       0.211
  YS02001622           JUNCTION      0.00   291.30     0  03:01           0        2.22       1.443
  YS02001633           JUNCTION    326.74   395.97     0  02:35        2.66        4.31       0.746
  YS02001649           JUNCTION      0.00   827.09     0  02:35           0        5.32       0.695
  YS02001757           JUNCTION      0.00  1577.75     0  02:35           0        9.57       0.973
  YS02001895           JUNCTION      0.00   494.85     0  03:01           0        3.17       0.168
  YS02001625           JUNCTION      0.00   290.81     0  03:01           0        2.19       1.803
  YS02163301           JUNCTION      0.00   218.29     0  02:22           0        1.67       1.468
  YS02163601           JUNCTION      0.11   396.21     0  02:35      0.0031        4.27       0.704
  YS02164001           JUNCTION      0.00   396.37     0  02:35           0        4.25       0.470
  YS02001647           JUNCTION      0.00   652.30     0  03:01           0        4.37       0.648
  YSB1154              JUNCTION     26.18    26.18     0  03:01       0.129        0.13       1.130
  YSB6556              JUNCTION      0.00    25.82     0  03:01           0        0.13       0.969
  YSB1174              JUNCTION     20.52    20.52     0  03:01      0.0948      0.0953       1.368
  YSB1171              JUNCTION      0.00    45.30     0  03:01           0       0.231       2.820
  YS02006553           JUNCTION      0.00   704.90     0  03:31           0        6.58       0.237
  YS02006561           JUNCTION      0.00   981.36     0  03:17           0        9.45       0.006
  YS02006556           JUNCTION      0.00   704.89     0  03:31           0        6.58       0.173
  YS02006558           JUNCTION    433.40   982.52     0  03:15        2.93        9.48       0.056
  YS02001783           JUNCTION      0.00   981.80     0  03:14           0        9.45       0.026
  YS02001784           JUNCTION      1.06   982.63     0  03:15      0.0299        9.48       0.038
  YS02001786           JUNCTION      0.06   982.49     0  03:16     0.00159        9.48       0.036
  YS02001788           JUNCTION      0.07   982.77     0  03:14       0.002        9.48       0.024
  YS02001790           JUNCTION      0.15   982.91     0  03:14     0.00437        9.48       0.020
  YS02001791           JUNCTION      0.00   982.83     0  03:13           0        9.48       0.008
  YS02001793           JUNCTION      0.00   983.26     0  03:17           0        9.48      -0.003
  WSC                  OUTFALL       0.00  1204.39     0  03:10           0        20.5       0.000
  JK-storage           STORAGE       0.00   999.57     0  02:41           0        9.63     -11.197
  CC-storage           STORAGE       0.00  1577.79     0  02:35           0         8.4       0.759
  XR-storage           STORAGE     844.76   844.76     0  03:01        11.8        12.4      -0.000
  
  
  **********************
  Node Surcharge Summary
  **********************
  
  Surcharging occurs when water rises above the top of the highest conduit.
  ---------------------------------------------------------------------
                                               Max. Height   Min. Depth
                                   Hours       Above Crown    Below Rim
  Node                 Type      Surcharged         Meters       Meters
  ---------------------------------------------------------------------
  WS02004401           JUNCTION        0.26          0.136        1.524
  WS02004402           JUNCTION        0.31          0.136        1.604
  WS02004403           JUNCTION        0.31          0.121        1.909
  WS02004404           JUNCTION        0.66          0.175        2.605
  WS02004406           JUNCTION        0.49          0.116        2.334
  WS02004405           JUNCTION        0.54          0.155        2.645
  WS02006109           JUNCTION        4.28          0.481        1.339
  WS02006110           JUNCTION        2.18          0.233        1.617
  WS02006112           JUNCTION        2.81          0.415        1.265
  WS02006115           JUNCTION        0.14          0.079        2.171
  WS02006116           JUNCTION        0.16          0.084        2.206
  WS02006230           JUNCTION        1.51          0.432        1.138
  WS02006231           JUNCTION        2.09          0.498        1.032
  WS02006232           JUNCTION        4.08          0.662        0.818
  WS02006234           JUNCTION        3.27          0.597        0.643
  WS02006235           JUNCTION        3.62          0.654        0.636
  WS02006238           JUNCTION        3.72          0.669        0.761
  WS02006240           JUNCTION        3.13          0.568        0.822
  WS02006242           JUNCTION        3.25          0.609        0.211
  WS02006243           JUNCTION        2.63          0.530        0.240
  WS02006245           JUNCTION        2.34          0.533        0.317
  WS02006247           JUNCTION        2.37          0.535        0.225
  WS02006248           JUNCTION        1.99          0.380        0.000
  WS02006249           JUNCTION        2.07          0.390        0.000
  WS02006239           JUNCTION        3.23          0.604        0.686
  WS02006251           JUNCTION        1.10          0.248        0.932
  WS02006252           JUNCTION        2.93          0.432        0.668
  WS02006253           JUNCTION        1.16          0.382        2.098
  WS02006256           JUNCTION        6.88          2.050        0.000
  WS02006228           JUNCTION        4.24          0.600        1.600
  YS02001748           JUNCTION        5.31          0.550        0.640
  YS02001751           JUNCTION        5.48          0.674        0.526
  YS02001754           JUNCTION        5.69          0.781        0.369
  YS02001762           JUNCTION        5.87          1.040        0.110
  YS02001765           JUNCTION        5.84          0.989        0.111
  YS02001767           JUNCTION        5.81          0.945        0.085
  YS02001770           JUNCTION        5.80          0.920        0.000
  YS02001774           JUNCTION        5.86          1.023        0.027
  YS02001779           JUNCTION        5.67          0.680        0.000
  YS02001882           JUNCTION        0.84          0.633        0.197
  YS02001884           JUNCTION        0.87          0.668        0.202
  YS02001759           JUNCTION        5.89          1.081        0.129
  YS02001887           JUNCTION        0.96          0.749        0.201
  YS02001890           JUNCTION        1.00          0.760        0.000
  YS02001898           JUNCTION        0.79          0.538        0.202
  YS02001901           JUNCTION        0.92          0.679        0.191
  YS02001904           JUNCTION        0.89          0.638        0.212
  YS02001907           JUNCTION        1.80          0.950        0.000
  YS02001910           JUNCTION        1.05          0.788        0.312
  YS02001915           JUNCTION        0.82          0.606        0.394
  YS02001918           JUNCTION        0.65          0.295        0.515
  YS02001619           JUNCTION        5.46          0.587        0.023
  YS02001629           JUNCTION        5.47          0.470        0.000
  YS02001641           JUNCTION        5.85          0.935        0.165
  YS02001644           JUNCTION        5.85          0.920        0.000
  YS02001652           JUNCTION        5.73          1.130        0.000
  YS02001655           JUNCTION        5.50          1.200        0.000
  YS02001920           JUNCTION        0.69          0.379        0.761
  YS02001658           JUNCTION        5.34          1.262        0.038
  YS02001661           JUNCTION        0.18          1.390        0.000
  YS02001622           JUNCTION        5.50          0.575        0.045
  YS02001633           JUNCTION        5.83          0.925        0.135
  YS02001649           JUNCTION        5.87          1.050        0.000
  YS02001757           JUNCTION        5.98          1.176        0.034
  YS02001895           JUNCTION        0.81          0.563        0.187
  YS02001625           JUNCTION        5.76          0.780        0.000
  YS02163301           JUNCTION        5.81          0.881        0.149
  YS02163601           JUNCTION        5.87          0.988        0.092
  YS02164001           JUNCTION        5.84          0.920        0.180
  YS02001647           JUNCTION        5.75          0.802        0.098
  YS02006553           JUNCTION        1.87          0.966        0.224
  YS02006561           JUNCTION        0.71          0.297        0.853
  YS02006556           JUNCTION        1.30          0.884        0.466
  YS02006558           JUNCTION        1.26          0.864        0.536
  YS02001783           JUNCTION        0.98          0.690        0.910
  YS02001784           JUNCTION        0.93          0.741        0.749
  YS02001786           JUNCTION        0.83          0.875        0.555
  YS02001788           JUNCTION        0.77          1.030        0.450
  YS02001790           JUNCTION        1.69          1.157        0.000
  YS02001791           JUNCTION        1.82          1.920        0.000
  YS02001793           JUNCTION        2.15          2.202        0.398
  
  
  *********************
  Node Flooding Summary
  *********************
  
  Flooding refers to all water that overflows a node, whether it ponds or not.
  --------------------------------------------------------------------------
                                                             Total   Maximum
                                 Maximum   Time of Max       Flood    Ponded
                        Hours       Rate    Occurrence      Volume     Depth
  Node                 Flooded       LPS   days hr:min    10^6 ltr    Meters
  --------------------------------------------------------------------------
  WS02006248              0.01     14.14      0  02:59       0.000     0.000
  WS02006249              1.02    130.67      0  03:20       0.209     0.000
  WS02006256              3.88    809.87      0  03:03       6.305     0.000
  YS02001770              0.01      6.28      0  02:18       0.000     0.000
  YS02001779              2.50    565.23      0  03:01       1.525     0.000
  YS02001890              0.01     11.64      0  02:47       0.000     0.000
  YS02001907              0.54    411.23      0  03:01       0.431     0.000
  YS02001629              0.01     15.79      0  02:27       0.000     0.000
  YS02001644              4.47   1352.73      0  03:01       7.237     0.000
  YS02001652              0.01      8.55      0  03:56       0.000     0.000
  YS02001655              0.01    203.01      0  02:20       0.000     0.000
  YS02001661              0.01    145.71      0  03:56       0.000     0.000
  YS02001649              0.05     42.60      0  03:56       0.002     0.000
  YS02001625              1.22    236.66      0  03:01       0.465     0.000
  YS02001790              0.01    148.77      0  04:37       0.000     0.000
  YS02001791              0.01    262.51      0  04:36       0.000     0.000
  JK-storage              0.85    965.06      0  02:50       1.085     0.000
  XR-storage              3.14    464.75      0  03:01       1.989     0.000
  
  
  **********************
  Storage Volume Summary
  **********************
  
  --------------------------------------------------------------------------------------------------
                         Average     Avg  Evap Exfil       Maximum     Max    Time of Max    Maximum
                          Volume    Pcnt  Pcnt  Pcnt        Volume    Pcnt     Occurrence    Outflow
  Storage Unit           1000 m3    Full  Loss  Loss       1000 m3    Full    days hr:min        LPS
  --------------------------------------------------------------------------------------------------
  JK-storage               0.130      44     0     0         0.291     100       0  02:01     983.00
  CC-storage               3.289      21     0     0         3.916      25       0  03:05     400.00
  XR-storage               0.808      87     0     0         0.926     100       0  02:50     380.00
  
  
  ***********************
  Outfall Loading Summary
  ***********************
  
  ---------------------------------------------------------------------------------------------------------------------------------
                         Flow       Avg       Max       Total         Total         Total         Total         Total         Total
                         Freq      Flow      Flow      Volume           COD            SS            TN            TP         NH4-N
  Outfall Node           Pcnt       LPS       LPS    10^6 ltr            kg            kg            kg            kg            kg
  ---------------------------------------------------------------------------------------------------------------------------------
  WSC                   99.99    827.03   1204.39      20.546      2374.207      4061.965       151.695        17.830        91.777
  ---------------------------------------------------------------------------------------------------------------------------------
  System                99.99    827.03   1204.39      20.546      2374.207      4061.965       151.695        17.830        91.777
  
  
  ********************
  Link Flow Summary
  ********************
  
  -----------------------------------------------------------------------------
                                 Maximum  Time of Max   Maximum    Max/    Max/
                                  |Flow|   Occurrence   |Veloc|    Full    Full
  Link                 Type          LPS  days hr:min     m/sec    Flow   Depth
  -----------------------------------------------------------------------------
  WS02003066WSF200     CONDUIT    820.36     0  03:06      2.93    0.14    0.30
  WS02006287WS02006284 CONDUIT    413.47     0  03:02      2.04    0.19    0.30
  WS02006284WS02006280 CONDUIT    413.63     0  03:02      2.28    0.17    0.28
  WS02006280WS02006229 CONDUIT    413.62     0  03:02      3.65    0.09    0.25
  WS02006229WS02006228 CONDUIT    818.77     0  03:02      1.63    2.71    1.00
  WS02006256WS02006235 CONDUIT    288.92     0  00:00      4.23    3.06    1.00
  WS02006253WS02006251 CONDUIT    118.79     0  03:00      0.60    0.36    1.00
  WS02006252WS02006251 CONDUIT    401.65     0  07:29      3.20    1.47    1.00
  WS02006251WS02006249 CONDUIT    427.02     0  07:29      1.11    1.23    1.00
  WS02006249WS02006248 CONDUIT    394.24     0  04:30      1.13    2.16    1.00
  WS02006248WS02006247 CONDUIT    392.28     0  04:30      1.10    0.85    1.00
  WS02006247WS02006245 CONDUIT    392.39     0  04:30      1.07    3.11    1.00
  WS02006245WS02006243 CONDUIT    392.04     0  04:30      1.08    1.16    1.00
  WS02006243WS02006242 CONDUIT    392.17     0  04:30      1.02    0.84    1.00
  WS02006242WS02006240 CONDUIT    392.22     0  04:30      1.02    1.56    1.00
  WS02006240WS02006239 CONDUIT    392.29     0  04:31      1.02    1.23    1.00
  WS02006239WS02006238 CONDUIT    392.25     0  04:31      1.02    1.26    1.00
  WS02006238WS02006235 CONDUIT    394.09     0  04:31      1.45    0.88    1.00
  WS02006235WS02006234 CONDUIT    523.16     0  07:33      1.36    5.52    1.00
  WS02006234WS02006232 CONDUIT    522.72     0  07:30      1.39    1.06    1.00
  WS02006232WS02006231 CONDUIT    522.88     0  07:30      1.36    1.10    1.00
  WS02006231WS02006230 CONDUIT    522.85     0  07:30      1.36    7.93    1.00
  WS02006230WS02006229 CONDUIT    534.03     0  06:49      1.39   11.88    1.00
  WS02006228WS02006109 CONDUIT    819.02     0  03:02      1.63    3.58    1.00
  WS02006116WS02004401 CONDUIT    827.81     0  03:04      1.05    1.14    1.00
  WS02006115WS02006116 CONDUIT    827.17     0  03:04      1.05    1.06    1.00
  WS02006113WS02006111 CONDUIT    813.06     0  03:03      2.62    0.97    0.81
  WS02006112WS02006115 CONDUIT    826.98     0  03:04      1.05    0.49    1.00
  WS02006111WS02006112 CONDUIT    815.72     0  03:04      1.75    0.39    0.90
  WS02006110WS02006113 CONDUIT    819.94     0  03:02      1.76    0.75    0.90
  WS02006109WS02006110 CONDUIT    819.91     0  03:02      1.63    1.58    1.00
  WS02004411WS02004412 CONDUIT    819.56     0  03:06      1.15    1.16    0.85
  WS02004401WS02004402 CONDUIT    828.16     0  03:04      1.05    0.99    1.00
  WS02004413WS02003067 CONDUIT    819.67     0  03:06      1.41    0.35    0.69
  WS02004412WS02004413 CONDUIT    819.52     0  03:06      1.09    0.55    0.91
  WS02004410WS02004411 CONDUIT    820.25     0  03:05      1.15    1.12    0.86
  WS02004409WS02004410 CONDUIT    822.52     0  03:05      1.15    1.06    0.86
  WS02004407WS02004409 CONDUIT    827.39     0  03:04      1.66    0.29    0.62
  WS02004406WS02004407 CONDUIT    828.04     0  03:04      1.44    0.37    0.69
  WS02004405WS02004406 CONDUIT    828.31     0  03:04      1.10    1.63    1.00
  WS02004404WS02004405 CONDUIT    828.78     0  03:04      1.15    8.12    1.00
  WS02004403WS02004404 CONDUIT    828.36     0  03:04      1.05    0.60    1.00
  WS02004402WS02004403 CONDUIT    828.11     0  03:04      1.05    1.19    1.00
  WS02004139WS02001211 CONDUIT    382.13     0  03:16      0.90    0.48    0.62
  WS02004138WS02004139 CONDUIT    395.52     0  00:00      3.64    0.08    0.46
  WS02003067WS02003066 CONDUIT    820.18     0  03:06      1.53    0.26    0.48
  WS02001213WS02003059 CONDUIT    395.94     0  07:49      0.89    0.65    0.84
  WS02001212WS02001213 CONDUIT    393.17     0  07:48      1.32    0.61    0.53
  WS02001211WS02001212 CONDUIT    391.42     0  03:16      0.78    0.30    0.69
  WS02003072WS02003073 CONDUIT   1201.80     0  03:09      1.89    2.60    0.55
  WS02003069WS02003072 CONDUIT   1201.63     0  03:09      1.76    0.58    0.58
  WS02003060WS02003069 CONDUIT   1201.37     0  03:08      1.98    0.47    0.53
  WS02003059WS02003060 CONDUIT    399.99     0  07:49      0.95    0.26    0.73
  HS02004901HS02004770 CONDUIT     20.50     0  03:01      0.07    0.08    0.42
  HS02004876HS02004881 CONDUIT     76.54     0  03:01      0.95    0.81    0.12
  HS02004870HS02004876 CONDUIT     61.90     0  03:01      0.65    0.04    0.14
  HS02004842HS02004848 CONDUIT     12.41     0  03:01      0.06    0.01    0.31
  HS02004837HS02004842 CONDUIT     12.97     0  03:02      0.42    0.01    0.32
  HS02004830HS02004837 CONDUIT     43.71     0  03:01      0.57    0.04    0.11
  HS02004824HS02004830 CONDUIT     43.67     0  03:01      0.59    0.06    0.11
  HS02004817HS02004824 CONDUIT     85.68     0  03:01      0.26    0.04    0.48
  HS02004770HS02004777 CONDUIT    104.13     0  03:01      0.35    0.19    0.43
  HS02004799HS02004480 CONDUIT    258.28     0  03:01      0.83    0.33    0.44
  HS02004792HS02004799 CONDUIT    237.05     0  03:01      0.95    0.15    0.36
  HS02004788HS02004792 CONDUIT    135.43     0  03:01      1.06    0.09    0.18
  HS02004785HS02004788 CONDUIT    103.22     0  03:02      0.71    0.78    0.21
  HS02004777HS02004785 CONDUIT    103.37     0  03:01      0.42    0.13    0.35
  HS02004480HS02004478 CONDUIT    302.29     0  03:01      1.26    1.27    0.34
  HS02004479HS02004480 CONDUIT     46.28     0  03:02      0.32    0.04    0.43
  HS02004862HS02004870 CONDUIT     47.43     0  03:01      0.66    0.05    0.10
  HS02004848HS02004852 CONDUIT     21.94     0  03:01      0.45    0.02    0.07
  HS02004856HS02004862 CONDUIT     32.47     0  03:01      0.48    0.03    0.10
  HS02004852HS02004856 CONDUIT     21.85     0  03:02      0.25    0.02    0.13
  HS02004802HS02004478 CONDUIT    111.52     0  03:02      0.45    0.10    0.36
  HS02004478WS02006287 CONDUIT    413.23     0  03:01      1.75    0.12    0.26
  HS02004817HS02004807 CONDUIT     86.13     0  03:01      0.19    0.05    0.63
  HS02004807HS02004802 CONDUIT    111.37     0  03:01      0.38    0.21    0.42
  YS02001759YS02001757 CONDUIT    575.37     0  02:39      0.73    0.41    1.00
  YS02001762YS02001759 CONDUIT    291.93     0  02:38      0.37    0.34    1.00
  YS02001765YS02001762 CONDUIT    291.92     0  02:38      0.37    0.27    1.00
  YS02001770YS02001767 CONDUIT    291.21     0  02:38      0.37    1.15    1.00
  YS02001774YS02001770 CONDUIT    565.64     0  03:01      0.72    0.36    1.00
  YS02001779YS02001774 CONDUIT    565.23     0  03:01      0.72    0.28    1.00
  YS02001649YS02001757 CONDUIT    827.27     0  02:35      1.05    0.50    1.00
  YS02001767YS02001765 CONDUIT    291.77     0  02:38      0.37    0.37    1.00
  YS02006561YS02001783 CONDUIT    981.80     0  03:14      2.20    0.51    1.00
  YS02001783YS02001784 CONDUIT    981.57     0  03:15      1.95    1.35    1.00
  YS02001784YS02001785 CONDUIT    982.43     0  03:16      1.95    2.29    1.00
  YS02001788YS02001790 CONDUIT    982.76     0  03:14      2.45    0.72    1.00
  YS02001790YS02001791 CONDUIT    982.83     0  03:13      3.08    1.07    1.00
  YS02001791YS02001793 CONDUIT    983.26     0  03:17      6.09    0.42    1.00
  YS02001910YS02001907 CONDUIT    501.03     0  02:49      0.64    0.28    1.00
  YS02001786YS02001788 CONDUIT    982.70     0  03:14      2.33    1.89    1.00
  YS02001915YS02001910 CONDUIT    500.23     0  02:49      0.64    0.25    1.00
  YS02001918YS02001915 CONDUIT    254.69     0  02:49      0.44    0.14    1.00
  YS02001923YS02001920 CONDUIT    249.04     0  02:49      0.71    0.11    1.00
  YS02001926YS02001923 CONDUIT    296.95     0  02:49      0.83    0.42    0.92
  YS02001929YS02001926 CONDUIT    230.16     0  02:49      0.89    0.11    0.84
  YS02001920YS02001918 CONDUIT    252.33     0  02:49      0.70    0.24    1.00
  YS02001629YS02163301 CONDUIT    218.29     0  02:22      0.28    0.27    1.00
  YS02001619YS02001622 CONDUIT    291.30     0  03:01      0.61    0.43    1.00
  YS02001622YS02001625 CONDUIT    290.81     0  03:01      0.37    0.16    1.00
  YS02001625YS02001629 CONDUIT    218.76     0  02:17      0.28    0.10    1.00
  YS02163301YS02001633 CONDUIT    218.01     0  02:22      0.28    0.20    1.00
  YS02163601YS02164001 CONDUIT    396.37     0  02:35      0.50    0.35    1.00
  YS02164001YS02001641 CONDUIT    396.75     0  02:35      0.51    0.54    1.00
  YS02001641YS02001644 CONDUIT    397.39     0  02:35      0.51    1.28    1.00
  YS02001647YS02001649 CONDUIT    652.30     0  03:01      0.83    0.34    1.00
  YS02006553YS02006556 CONDUIT    704.89     0  03:31      0.90    0.60    1.00
  YS02006556YS02006558 CONDUIT    705.19     0  03:31      0.90    0.56    1.00
  YSB6556YSB1171       CONDUIT     25.74     0  03:03      0.09    0.03    0.70
  YS02001907YS02006553 CONDUIT    704.90     0  03:31      0.78    0.83    1.00
  YS02006558YS02006561 CONDUIT    981.36     0  03:17      3.56    2.17    1.00
  YS02001633YS02163601 CONDUIT    396.10     0  02:35      0.50    0.42    1.00
  YS02001644YS02001647 CONDUIT    652.37     0  03:01      0.83    0.38    1.00
  YS02001745YS02001748 CONDUIT    577.53     0  02:26      1.47    0.22    0.96
  YS02001748YS02001751 CONDUIT    359.36     0  02:17      1.06    0.18    1.00
  YS02001751YS02001754 CONDUIT    342.45     0  03:01      0.92    0.17    1.00
  YS02001754YS02001757 CONDUIT    343.60     0  03:01      0.44    0.14    1.00
  YS02001882YS02001884 CONDUIT     22.48     0  02:43      0.13    0.03    1.00
  YS02001884YS02001887 CONDUIT     37.77     0  02:43      0.09    0.05    1.00
  YS02001890YS02001895 CONDUIT    494.85     0  03:01      0.63    0.23    1.00
  YS02001895YS02001898 CONDUIT    495.43     0  03:01      0.63    0.86    1.00
  YS02001898YS02001901 CONDUIT    495.07     0  03:01      0.63    0.32    1.00
  YS02001901YS02001904 CONDUIT    494.95     0  03:00      0.63    0.77    1.00
  YS02001904YS02001907 CONDUIT    495.03     0  03:01      0.63    0.17    1.00
  YS02001887YS02001890 CONDUIT    495.61     0  03:01      0.63    0.85    1.00
  YS02001652YS02001649 CONDUIT    378.23     0  03:01      0.63    0.19    1.00
  YS02001655YS02001652 CONDUIT    378.12     0  03:01      0.98    0.18    1.00
  YS02001658YS02001655 CONDUIT    398.51     0  02:18      1.22    0.17    1.00
  YS02001661YS02001658 CONDUIT    593.41     0  02:23      1.55    0.23    1.00
  YS02001664YS02001661 CONDUIT    650.85     0  02:38      1.43    0.20    0.76
  YSB1154YSB6556       CONDUIT     25.82     0  03:01      0.17    0.05    0.59
  YSB1174YSB1171       CONDUIT     20.15     0  03:01      0.07    0.03    0.70
  YSB1171HS02004479    CONDUIT     44.88     0  03:02      0.54    0.03    0.55
  HS02004881HS02006253 CONDUIT     84.16     0  03:01      2.17    0.02    0.53
  YS02001793JiankangQianchi CONDUIT    999.57     0  02:41     18.31    0.08    1.00
  YS02001757CaochengTiaoxuchi CONDUIT   1577.79     0  02:35      2.02    0.69    1.00
  WSF200WS02003060     CONDUIT    820.95     0  03:06      1.86    0.18    0.41
  1                    CONDUIT   1204.39     0  03:10      3.50    0.42    0.45
  CC-Pump-1            PUMP       200.00     0  03:00              1.00
  CC-Pump-2            PUMP       200.00     0  03:40              1.00
  JK-Pump-1            PUMP       300.00     0  00:00              1.00
  JK-Pump-2            PUMP       683.00     0  02:10              1.00
  XR-Pump-1            PUMP        95.00     0  00:00              1.00
  XR-Pump-2            PUMP        95.00     0  00:00              1.00
  XR-Pump-3            PUMP        95.00     0  00:00              1.00
  XR-Pump-4            PUMP        95.00     0  00:00              1.00
  
  
  ***************************
  Flow Classification Summary
  ***************************
  
  -------------------------------------------------------------------------------------
                      Adjusted    ---------- Fraction of Time in Flow Class ---------- 
                       /Actual         Up    Down  Sub   Sup   Up    Down  Norm  Inlet 
  Conduit               Length    Dry  Dry   Dry   Crit  Crit  Crit  Crit  Ltd   Ctrl  
  -------------------------------------------------------------------------------------
  WS02003066WSF200        1.00   0.01  0.02  0.00  0.00  0.97  0.00  0.00  0.55  0.00
  WS02006287WS02006284    1.00   0.03  0.01  0.00  0.67  0.29  0.00  0.00  0.62  0.00
  WS02006284WS02006280    1.00   0.03  0.00  0.00  0.00  0.00  0.00  0.97  0.00  0.00
  WS02006280WS02006229    1.00   0.03  0.00  0.00  0.00  0.01  0.00  0.96  0.02  0.00
  WS02006229WS02006228    1.00   0.00  0.00  0.00  1.00  0.00  0.00  0.00  0.00  0.00
  WS02006256WS02006235    1.00   0.00  0.00  0.00  1.00  0.00  0.00  0.00  0.00  0.00
  WS02006253WS02006251    1.00   0.01  0.01  0.00  0.97  0.00  0.00  0.00  0.00  0.00
  WS02006252WS02006251    1.00   0.17  0.00  0.00  0.11  0.00  0.72  0.00  0.00  0.00
  WS02006251WS02006249    1.00   0.00  0.00  0.00  1.00  0.00  0.00  0.00  0.20  0.00
  WS02006249WS02006248    1.00   0.00  0.01  0.00  0.93  0.00  0.06  0.00  0.00  0.00
  WS02006248WS02006247    1.00   0.01  0.00  0.00  0.99  0.00  0.00  0.00  0.14  0.00
  WS02006247WS02006245    1.00   0.00  0.00  0.00  1.00  0.00  0.00  0.00  0.00  0.00
  WS02006245WS02006243    1.00   0.00  0.00  0.00  0.97  0.00  0.00  0.03  0.00  0.00
  WS02006243WS02006242    1.00   0.00  0.00  0.00  1.00  0.00  0.00  0.00  0.22  0.00
  WS02006242WS02006240    1.00   0.00  0.00  0.00  1.00  0.00  0.00  0.00  0.00  0.00
  WS02006240WS02006239    1.00   0.00  0.00  0.00  0.96  0.00  0.00  0.04  0.01  0.00
  WS02006239WS02006238    1.00   0.00  0.00  0.00  1.00  0.00  0.00  0.00  0.12  0.00
  WS02006238WS02006235    1.00   0.00  0.00  0.00  1.00  0.00  0.00  0.00  0.00  0.00
  WS02006235WS02006234    1.00   0.00  0.00  0.00  0.97  0.00  0.03  0.00  0.00  0.00
  WS02006234WS02006232    1.00   0.00  0.00  0.00  1.00  0.00  0.00  0.00  0.08  0.00
  WS02006232WS02006231    1.00   0.00  0.00  0.00  1.00  0.00  0.00  0.00  0.00  0.00
  WS02006231WS02006230    1.00   0.00  0.00  0.00  0.85  0.00  0.15  0.00  0.00  0.00
  WS02006230WS02006229    1.00   0.00  0.00  0.00  1.00  0.00  0.00  0.00  0.00  0.00
  WS02006228WS02006109    1.00   0.00  0.00  0.00  1.00  0.00  0.00  0.00  0.00  0.00
  WS02006116WS02004401    1.00   0.01  0.00  0.00  0.99  0.00  0.00  0.00  0.00  0.00
  WS02006115WS02006116    1.00   0.01  0.00  0.00  0.99  0.00  0.00  0.00  0.00  0.00
  WS02006113WS02006111    1.00   0.01  0.00  0.00  0.02  0.98  0.00  0.00  0.14  0.00
  WS02006112WS02006115    1.00   0.01  0.00  0.00  0.99  0.00  0.00  0.00  0.00  0.00
  WS02006111WS02006112    1.00   0.01  0.00  0.00  0.99  0.00  0.00  0.00  0.91  0.00
  WS02006110WS02006113    1.00   0.00  0.00  0.00  0.99  0.00  0.00  0.00  0.00  0.00
  WS02006109WS02006110    1.00   0.00  0.00  0.00  1.00  0.00  0.00  0.00  0.00  0.00
  WS02004411WS02004412    1.00   0.01  0.00  0.00  0.99  0.00  0.00  0.00  0.00  0.00
  WS02004401WS02004402    1.00   0.01  0.00  0.00  0.99  0.00  0.00  0.00  0.00  0.00
  WS02004413WS02003067    1.00   0.02  0.01  0.00  0.00  0.00  0.98  0.00  0.00  0.00
  WS02004412WS02004413    1.00   0.01  0.00  0.00  0.98  0.00  0.00  0.00  0.01  0.00
  WS02004410WS02004411    1.00   0.01  0.00  0.00  0.99  0.00  0.00  0.00  0.00  0.00
  WS02004409WS02004410    1.00   0.01  0.00  0.00  0.99  0.00  0.00  0.00  0.02  0.00
  WS02004407WS02004409    1.00   0.01  0.00  0.00  0.98  0.00  0.00  0.00  0.95  0.00
  WS02004406WS02004407    1.00   0.00  0.01  0.00  0.99  0.00  0.00  0.00  0.00  0.00
  WS02004405WS02004406    1.00   0.00  0.00  0.00  1.00  0.00  0.00  0.00  0.00  0.00
  WS02004404WS02004405    1.00   0.00  0.00  0.00  1.00  0.00  0.00  0.00  0.00  0.00
  WS02004403WS02004404    1.00   0.00  0.01  0.00  0.99  0.00  0.00  0.00  0.00  0.00
  WS02004402WS02004403    1.00   0.01  0.00  0.00  0.99  0.00  0.00  0.00  0.00  0.00
  WS02004139WS02001211    1.00   0.00  0.00  0.00  1.00  0.00  0.00  0.00  0.00  0.00
  WS02004138WS02004139    1.00   0.00  0.00  0.00  1.00  0.00  0.00  0.00  1.00  0.00
  WS02003067WS02003066    1.00   0.02  0.00  0.00  0.98  0.00  0.00  0.00  0.00  0.00
  WS02001213WS02003059    1.00   0.00  0.00  0.00  1.00  0.00  0.00  0.00  0.00  0.00
  WS02001212WS02001213    1.00   0.00  0.00  0.00  0.94  0.00  0.06  0.00  0.00  0.00
  WS02001211WS02001212    1.00   0.00  0.00  0.00  1.00  0.00  0.00  0.00  0.00  0.00
  WS02003072WS02003073    1.00   0.00  0.00  0.00  0.00  0.00  0.00  1.00  0.00  0.00
  WS02003069WS02003072    1.00   0.00  0.00  0.00  1.00  0.00  0.00  0.00  0.09  0.00
  WS02003060WS02003069    1.00   0.00  0.00  0.00  0.99  0.01  0.00  0.00  0.07  0.00
  WS02003059WS02003060    1.00   0.00  0.00  0.00  1.00  0.00  0.00  0.00  0.01  0.00
  HS02004901HS02004770    1.00   0.03  0.00  0.00  0.97  0.00  0.00  0.00  0.00  0.00
  HS02004876HS02004881    1.00   0.01  0.00  0.00  0.92  0.07  0.00  0.00  0.00  0.00
  HS02004870HS02004876    1.00   0.00  0.00  0.00  1.00  0.00  0.00  0.00  0.95  0.00
  HS02004842HS02004848    1.00   0.00  0.03  0.00  0.97  0.00  0.00  0.00  0.55  0.00
  HS02004837HS02004842    1.00   0.00  0.00  0.00  1.00  0.00  0.00  0.00  0.11  0.00
  HS02004830HS02004837    1.00   0.00  0.00  0.00  1.00  0.00  0.00  0.00  0.99  0.00
  HS02004824HS02004830    1.00   0.00  0.00  0.00  1.00  0.00  0.00  0.00  0.00  0.00
  HS02004817HS02004824    1.00   0.00  0.00  0.00  1.00  0.00  0.00  0.00  1.00  0.00
  HS02004770HS02004777    1.00   0.00  0.03  0.00  0.97  0.00  0.00  0.00  0.02  0.00
  HS02004799HS02004480    1.00   0.00  0.01  0.00  0.96  0.00  0.02  0.00  0.00  0.00
  HS02004792HS02004799    1.00   0.00  0.00  0.00  1.00  0.00  0.00  0.00  0.98  0.00
  HS02004788HS02004792    1.00   0.00  0.00  0.00  1.00  0.00  0.00  0.00  0.98  0.00
  HS02004785HS02004788    1.00   0.00  0.00  0.00  1.00  0.00  0.00  0.00  0.00  0.00
  HS02004777HS02004785    1.00   0.00  0.00  0.00  1.00  0.00  0.00  0.00  0.12  0.00
  HS02004480HS02004478    1.00   0.03  0.00  0.00  0.73  0.00  0.00  0.24  0.00  0.00
  HS02004479HS02004480    1.00   0.01  0.00  0.00  0.99  0.00  0.00  0.00  0.11  0.00
  HS02004862HS02004870    1.00   0.00  0.00  0.00  1.00  0.00  0.00  0.00  0.03  0.00
  HS02004848HS02004852    1.00   0.03  0.00  0.00  0.97  0.00  0.00  0.00  0.62  0.00
  HS02004856HS02004862    1.00   0.00  0.04  0.00  0.96  0.00  0.00  0.00  0.83  0.00
  HS02004852HS02004856    1.00   0.03  0.00  0.00  0.97  0.00  0.00  0.00  0.85  0.00
  HS02004802HS02004478    1.00   0.03  0.00  0.00  0.97  0.00  0.00  0.00  0.02  0.00
  HS02004478WS02006287    1.00   0.04  0.00  0.00  0.79  0.17  0.00  0.00  0.64  0.00
  HS02004817HS02004807    1.00   0.00  0.03  0.00  0.97  0.00  0.00  0.00  0.01  0.00
  HS02004807HS02004802    1.00   0.03  0.00  0.00  0.96  0.00  0.00  0.00  0.00  0.00
  YS02001759YS02001757    1.00   0.00  0.00  0.00  1.00  0.00  0.00  0.00  0.16  0.00
  YS02001762YS02001759    1.00   0.00  0.00  0.00  1.00  0.00  0.00  0.00  0.03  0.00
  YS02001765YS02001762    1.00   0.00  0.00  0.00  1.00  0.00  0.00  0.00  0.13  0.00
  YS02001770YS02001767    1.00   0.00  0.00  0.00  1.00  0.00  0.00  0.00  0.00  0.00
  YS02001774YS02001770    1.00   0.00  0.03  0.00  0.97  0.00  0.00  0.00  0.03  0.00
  YS02001779YS02001774    1.00   0.00  0.00  0.00  1.00  0.00  0.00  0.00  0.18  0.00
  YS02001649YS02001757    1.00   0.00  0.00  0.00  1.00  0.00  0.00  0.00  0.16  0.00
  YS02001767YS02001765    1.00   0.00  0.00  0.00  1.00  0.00  0.00  0.00  0.00  0.00
  YS02006561YS02001783    1.00   0.04  0.00  0.00  0.32  0.63  0.00  0.00  0.48  0.00
  YS02001783YS02001784    1.00   0.00  0.04  0.00  0.96  0.00  0.00  0.00  0.00  0.00
  YS02001784YS02001785    1.00   0.00  0.00  0.00  1.00  0.00  0.00  0.00  0.17  0.00
  YS02001788YS02001790    1.00   0.00  0.00  0.00  0.36  0.64  0.00  0.00  0.39  0.00
  YS02001790YS02001791    1.00   0.00  0.00  0.00  0.33  0.67  0.00  0.00  0.47  0.00
  YS02001791YS02001793    1.00   0.00  0.00  0.00  0.37  0.63  0.00  0.00  0.03  0.00
  YS02001910YS02001907    1.00   0.00  0.00  0.00  0.99  0.00  0.00  0.01  0.12  0.00
  YS02001786YS02001788    1.00   0.00  0.00  0.00  0.34  0.66  0.00  0.00  0.00  0.00
  YS02001915YS02001910    1.00   0.00  0.00  0.00  0.99  0.01  0.00  0.00  0.15  0.00
  YS02001918YS02001915    1.00   0.00  0.00  0.00  0.99  0.01  0.00  0.00  0.55  0.00
  YS02001923YS02001920    1.00   0.00  0.00  0.00  1.00  0.00  0.00  0.00  0.84  0.00
  YS02001926YS02001923    1.00   0.00  0.02  0.00  0.11  0.00  0.87  0.00  0.00  0.00
  YS02001929YS02001926    1.00   0.00  0.03  0.00  0.97  0.00  0.00  0.00  0.77  0.00
  YS02001920YS02001918    1.00   0.00  0.00  0.00  1.00  0.00  0.00  0.00  0.00  0.00
  YS02001629YS02163301    1.00   0.04  0.00  0.00  0.96  0.00  0.00  0.00  0.00  0.00
  YS02001619YS02001622    1.00   0.03  0.00  0.00  0.97  0.00  0.00  0.00  0.00  0.00
  YS02001622YS02001625    1.00   0.03  0.00  0.00  0.97  0.00  0.00  0.00  0.04  0.00
  YS02001625YS02001629    1.00   0.03  0.01  0.00  0.94  0.00  0.01  0.00  0.00  0.00
  YS02163301YS02001633    1.00   0.00  0.04  0.00  0.96  0.00  0.00  0.00  0.00  0.00
  YS02163601YS02164001    1.00   0.00  0.02  0.00  0.98  0.00  0.00  0.00  0.00  0.00
  YS02164001YS02001641    1.00   0.00  0.02  0.00  0.98  0.00  0.00  0.00  0.06  0.00
  YS02001641YS02001644    1.00   0.00  0.00  0.00  1.00  0.00  0.00  0.00  0.00  0.00
  YS02001647YS02001649    1.00   0.00  0.04  0.00  0.96  0.00  0.00  0.00  0.01  0.00
  YS02006553YS02006556    1.00   0.00  0.00  0.00  1.00  0.00  0.00  0.00  0.03  0.00
  YS02006556YS02006558    1.00   0.00  0.00  0.00  1.00  0.00  0.00  0.00  0.00  0.00
  YSB6556YSB1171          1.00   0.01  0.02  0.00  0.97  0.00  0.00  0.00  0.00  0.00
  YS02001907YS02006553    1.00   0.00  0.01  0.00  0.99  0.00  0.00  0.00  0.00  0.00
  YS02006558YS02006561    1.00   0.04  0.00  0.00  0.10  0.86  0.00  0.00  0.48  0.00
  YS02001633YS02163601    1.00   0.00  0.00  0.00  1.00  0.00  0.00  0.00  0.15  0.00
  YS02001644YS02001647    1.00   0.00  0.04  0.00  0.96  0.00  0.00  0.00  0.00  0.00
  YS02001745YS02001748    1.00   0.00  0.00  0.00  0.92  0.00  0.00  0.07  0.04  0.00
  YS02001748YS02001751    1.00   0.00  0.00  0.00  0.97  0.03  0.00  0.00  0.15  0.00
  YS02001751YS02001754    1.00   0.00  0.00  0.00  0.95  0.00  0.00  0.05  0.02  0.00
  YS02001754YS02001757    1.00   0.00  0.00  0.00  1.00  0.00  0.00  0.00  0.18  0.00
  YS02001882YS02001884    1.00   0.04  0.00  0.00  0.96  0.00  0.00  0.00  0.00  0.00
  YS02001884YS02001887    1.00   0.02  0.01  0.00  0.97  0.00  0.00  0.00  0.00  0.00
  YS02001890YS02001895    1.00   0.00  0.04  0.00  0.96  0.00  0.00  0.00  0.00  0.00
  YS02001895YS02001898    1.00   0.04  0.00  0.00  0.95  0.00  0.01  0.00  0.00  0.00
  YS02001898YS02001901    1.00   0.04  0.00  0.00  0.96  0.00  0.00  0.00  0.01  0.00
  YS02001901YS02001904    1.00   0.04  0.00  0.00  0.96  0.00  0.00  0.00  0.00  0.00
  YS02001904YS02001907    1.00   0.00  0.04  0.00  0.96  0.00  0.00  0.00  0.00  0.00
  YS02001887YS02001890    1.00   0.00  0.00  0.00  0.99  0.00  0.01  0.00  0.00  0.00
  YS02001652YS02001649    1.00   0.00  0.00  0.00  1.00  0.00  0.00  0.00  0.16  0.00
  YS02001655YS02001652    1.00   0.00  0.00  0.00  0.95  0.00  0.00  0.05  0.02  0.00
  YS02001658YS02001655    1.00   0.00  0.03  0.00  0.94  0.02  0.00  0.00  0.08  0.00
  YS02001661YS02001658    1.00   0.03  0.00  0.00  0.92  0.04  0.00  0.00  0.09  0.00
  YS02001664YS02001661    1.00   0.03  0.00  0.00  0.93  0.04  0.00  0.00  0.19  0.00
  YSB1154YSB6556          1.00   0.03  0.00  0.00  0.97  0.00  0.00  0.00  0.01  0.00
  YSB1174YSB1171          1.00   0.02  0.01  0.00  0.98  0.00  0.00  0.00  0.00  0.00
  YSB1171HS02004479       1.00   0.01  0.00  0.00  0.98  0.00  0.00  0.00  0.10  0.00
  HS02004881HS02006253    1.00   0.02  0.00  0.00  0.79  0.01  0.00  0.18  0.61  0.00
  YS02001793JiankangQianchi    1.00   0.00  0.00  0.00  0.63  0.37  0.00  0.00  0.40  0.00
  YS02001757CaochengTiaoxuchi    1.00   0.00  0.06  0.00  0.94  0.00  0.00  0.00  0.00  0.00
  WSF200WS02003060        1.00   0.00  0.01  0.00  0.97  0.02  0.00  0.00  0.30  0.00
  1                       1.00   0.00  0.00  0.00  0.00  1.00  0.00  0.00  0.50  0.00
  
  
  *************************
  Conduit Surcharge Summary
  *************************
  
  ----------------------------------------------------------------------------
                                                           Hours        Hours 
                         --------- Hours Full --------   Above Full   Capacity
  Conduit                Both Ends  Upstream  Dnstream   Normal Flow   Limited
  ----------------------------------------------------------------------------
  WS02006229WS02006228        4.24      4.33      4.24      5.56         4.24
  WS02006256WS02006235        6.02      6.03      6.88      4.43         0.01
  WS02006253WS02006251        1.97      1.97      2.04      0.01         0.01
  WS02006252WS02006251        1.55      1.55      2.93      2.29         0.01
  WS02006251WS02006249        1.99      1.99      2.07      1.02         0.72
  WS02006249WS02006248        1.99      1.99      2.07      4.54         0.01
  WS02006248WS02006247        2.05      2.05      2.37      0.01         0.01
  WS02006247WS02006245        2.34      2.45      2.34      4.67         2.31
  WS02006245WS02006243        2.42      2.42      2.63      0.39         0.25
  WS02006243WS02006242        2.73      2.73      3.25      0.01         0.01
  WS02006242WS02006240        3.13      3.13      3.49      2.98         0.01
  WS02006240WS02006239        3.15      3.16      3.23      1.17         0.64
  WS02006239WS02006238        3.51      3.53      3.72      1.43         0.78
  WS02006238WS02006235        3.69      3.69      3.87      0.01         0.01
  WS02006235WS02006234        3.27      3.27      3.62      5.98         0.01
  WS02006234WS02006232        3.47      3.47      4.08      1.00         0.99
  WS02006232WS02006231        2.09      2.09      4.08      1.36         0.01
  WS02006231WS02006230        1.51      1.51      2.24      6.03         0.01
[...]
  YS02001765YS02001762        5.84      5.84      5.87      0.01         0.01
  YS02001770YS02001767        5.81      5.81      5.81      0.19         0.77
  YS02001774YS02001770        5.80      5.80      5.86      0.01         0.01
  YS02001779YS02001774        5.67      5.67      5.86      0.01         0.01
  YS02001649YS02001757        5.87      5.87      5.98      0.01         0.01
  YS02001767YS02001765        5.81      5.81      5.84      0.01         0.01
  YS02006561YS02001783        0.71      0.71      0.98      0.01         0.01
  YS02001783YS02001784        0.93      0.98      0.93      1.41         0.93
  YS02001784YS02001785        0.83      0.93      0.83      2.40         0.83
  YS02001788YS02001790        0.77      0.77      1.69      0.01         0.01
  YS02001790YS02001791        1.69      1.69      1.82      0.83         0.79
  YS02001791YS02001793        1.82      1.82      2.26      0.01         0.01
  YS02001910YS02001907        1.05      1.05      1.80      0.01         0.01
  YS02001786YS02001788        0.77      0.83      0.77      2.02         0.77
  YS02001915YS02001910        0.82      0.82      1.05      0.01         0.01
  YS02001918YS02001915        0.65      0.65      0.82      0.01         0.01
  YS02001923YS02001920        0.45      0.45      0.69      0.01         0.01
  YS02001920YS02001918        0.65      0.65      0.69      0.01         0.01
  YS02001629YS02163301        5.80      5.80      5.81      0.01         0.01
  YS02001619YS02001622        5.46      5.46      5.50      0.01         0.01
  YS02001622YS02001625        5.50      5.50      5.76      0.01         0.01
  YS02001625YS02001629        5.47      5.47      5.76      0.01         0.01
  YS02163301YS02001633        5.81      5.81      5.84      0.01         0.01
  YS02163601YS02164001        5.84      5.84      5.87      0.01         0.01
  YS02164001YS02001641        5.84      5.84      5.85      0.01         0.04
  YS02001641YS02001644        5.85      5.85      5.85      1.52         1.57
  YS02001647YS02001649        5.75      5.75      5.87      0.01         0.01
  YS02006553YS02006556        1.30      1.30      1.87      0.01         0.01
  YS02006556YS02006558        1.53      1.53      1.93      0.01         0.01
  YS02001907YS02006553        2.41      2.41      2.63      0.01         0.01
  YS02006558YS02006561        0.80      1.26      0.80      2.23         0.80
  YS02001633YS02163601        5.83      5.83      5.87      0.01         0.01
  YS02001644YS02001647        5.75      5.75      5.85      0.01         0.01
  YS02001745YS02001748        0.01      0.01      5.30      0.01         0.01
  YS02001748YS02001751        5.36      5.36      5.48      0.01         0.01
  YS02001751YS02001754        5.48      5.48      5.69      0.01         0.01
  YS02001754YS02001757        5.74      5.74      5.98      0.01         0.01
  YS02001882YS02001884        0.84      0.84      0.87      0.01         0.01
  YS02001884YS02001887        0.93      0.93      0.96      0.01         0.01
  YS02001890YS02001895        0.81      0.81      1.08      0.01         0.01
  YS02001895YS02001898        0.79      0.79      0.81      0.01         0.01
  YS02001898YS02001901        0.81      0.81      0.92      0.01         0.01
  YS02001901YS02001904        0.89      0.89      0.92      0.01         0.01
  YS02001904YS02001907        0.89      0.89      1.90      0.01         0.01
  YS02001887YS02001890        1.00      1.00      1.03      0.01         0.01
  YS02001652YS02001649        5.76      5.76      5.87      0.01         0.01
  YS02001655YS02001652        5.50      5.50      5.73      0.01         0.01
  YS02001658YS02001655        5.33      5.33      5.50      0.01         0.01
  YS02001661YS02001658        0.16      0.16      5.34      0.01         0.01
  YS02001664YS02001661        0.01      0.01      1.16      0.01         0.01
  HS02004881HS02006253        0.01      0.01      1.16      0.01         0.01
  YS02001793JiankangQianchi        2.15      2.15      3.86      0.01         0.01
  YS02001757CaochengTiaoxuchi        5.21      5.21      5.98      0.01         0.01
  
  
  ***************
  Pumping Summary
  ***************
  
  ---------------------------------------------------------------------------------------------------------
                                                  Min       Avg       Max     Total     Power    % Time Off
                        Percent   Number of      Flow      Flow      Flow    Volume     Usage    Pump Curve
  Pump                 Utilized   Start-Ups       LPS       LPS       LPS  10^6 ltr     Kw-hr    Low   High
  ---------------------------------------------------------------------------------------------------------
  CC-Pump-1               63.83           1      0.00    192.52    200.00     3.420      3.43    0.0    0.0
  CC-Pump-2               44.67           6      0.00     85.94    200.00     1.320      1.67    0.0    0.0
  JK-Pump-1               61.70           5      0.00    219.88    300.00     3.794     60.29    0.0    0.0
  JK-Pump-2               51.06           4      0.00    374.20    683.00     5.908     89.41    0.0   95.8
  XR-Pump-1               95.75           3      0.00     93.50     95.00     2.451     22.34    0.0    0.0
  XR-Pump-2               95.75           3      0.00     93.50     95.00     2.451     22.34    0.0    0.0
  XR-Pump-3               95.75           3      0.00     93.50     95.00     2.451     22.34    0.0    0.0
  XR-Pump-4               95.75           3      0.00     93.50     95.00     2.451     22.34    0.0    0.0
  
  
  ***************************
  Link Pollutant Load Summary
  ***************************
  
  ------------------------------------------------------------------------------------------
                                 COD            SS            TN            TP         NH4-N
  Link                            kg            kg            kg            kg            kg
  ------------------------------------------------------------------------------------------
  WS02003066WSF200           848.771      1557.041        22.431         1.954        11.816
  WS02006287WS02006284       268.090       498.280         9.347         0.943         5.214
  WS02006284WS02006280       268.578       499.070         9.394         0.949         5.244
  WS02006280WS02006229       268.543       499.005         9.392         0.949         5.242
  WS02006229WS02006228       851.611      1562.092        21.979         1.883        11.505
  WS02006256WS02006235       180.944       329.913         4.045         0.316         2.051
  WS02006253WS02006251        51.998        99.886         1.213         0.094         0.610
  WS02006252WS02006251       386.230       698.361         8.117         0.582         3.992
  WS02006251WS02006249       430.595       784.604         9.183         0.667         4.533
  WS02006249WS02006248       411.697       750.065         8.784         0.638         4.336
  WS02006248WS02006247       411.436       749.630         8.778         0.637         4.333
  WS02006247WS02006245       410.944       748.758         8.767         0.636         4.328
  WS02006245WS02006243       410.460       747.976         8.752         0.635         4.320
  WS02006243WS02006242       410.134       747.426         8.746         0.635         4.317
  WS02006242WS02006240       409.447       746.247         8.729         0.634         4.308
  WS02006240WS02006239       409.607       746.627         8.733         0.634         4.310
  WS02006239WS02006238       410.490       748.168         8.764         0.637         4.328
  WS02006238WS02006235       410.808       748.608         8.777         0.638         4.336
  WS02006235WS02006234       587.488      1070.843        12.706         0.944         6.325
  WS02006234WS02006232       586.830      1069.692        12.693         0.943         6.319
  WS02006232WS02006231       586.060      1068.334        12.674         0.942         6.309
  WS02006231WS02006230       585.476      1067.290        12.660         0.941         6.302
  WS02006230WS02006229       584.179      1065.043        12.624         0.938         6.283
  WS02006228WS02006109       850.405      1560.002        21.943         1.880        11.486
  WS02006116WS02004401       860.334      1577.425        22.692         1.973        11.947
  WS02006115WS02006116       861.700      1579.811        22.731         1.977        11.968
  WS02006113WS02006111       855.674      1568.012        22.658         1.972        11.940
  WS02006112WS02006115       863.105      1582.277        22.776         1.981        11.993
  WS02006111WS02006112       855.015      1566.829        22.640         1.971        11.931
  WS02006110WS02006113       856.329      1569.139        22.680         1.974        11.953
  WS02006109WS02006110       857.624      1571.381        22.725         1.979        11.978
  WS02004411WS02004412       851.916      1562.553        22.534         1.964        11.873
  WS02004401WS02004402       859.029      1575.137        22.651         1.970        11.925
  WS02004413WS02003067       849.361      1558.060        22.447         1.955        11.825
  WS02004412WS02004413       850.739      1560.492        22.498         1.961        11.854
  WS02004410WS02004411       852.890      1564.251        22.562         1.966        11.888
  WS02004409WS02004410       853.881      1565.985        22.593         1.969        11.905
  WS02004407WS02004409       854.714      1567.430        22.615         1.971        11.917
  WS02004406WS02004407       854.945      1567.815        22.619         1.971        11.918
  WS02004405WS02004406       856.333      1570.224        22.668         1.976        11.946
  WS02004404WS02004405       857.286      1571.921        22.673         1.975        11.946
  WS02004403WS02004404       856.842      1571.314        22.585         1.964        11.889
  WS02004402WS02004403       857.867      1573.112        22.618         1.967        11.907
  WS02004139WS02001211      1386.188      2284.108       115.202        14.107        71.141
  WS02004138WS02004139      1392.898      2295.185       115.746        14.173        71.476
  WS02003067WS02003066       848.945      1557.347        22.437         1.955        11.820
  WS02001213WS02003059      1418.561      2335.160       118.531        14.527        73.232
  WS02001212WS02001213      1427.995      2350.653       119.320        14.623        73.720
  WS02001211WS02001212      1430.284      2354.376       119.521        14.648        73.844
  WS02003072WS02003073      2366.967      4050.632       150.877        17.726        91.260
  WS02003069WS02003072      2372.385      4059.589       151.303        17.777        91.522
  WS02003060WS02003069      2375.009      4064.057       151.457        17.795        91.614
  WS02003059WS02003060      1415.223      2329.592       118.278        14.496        73.077
  HS02004901HS02004770        10.270        19.478         0.195         0.015         0.091
  HS02004876HS02004881        37.321        72.587         0.843         0.062         0.416
  HS02004870HS02004876        28.163        54.634         0.678         0.051         0.338
  HS02004842HS02004848         5.467        10.277         0.115         0.008         0.053
  HS02004837HS02004842        10.073        17.583         0.584         0.067         0.347
  HS02004830HS02004837        65.640       112.707         4.557         0.546         2.785
  HS02004824HS02004830        66.391       113.911         4.628         0.555         2.830
  HS02004817HS02004824        88.210       156.983         5.083         0.584         3.051
  HS02004770HS02004777        39.298        75.470         0.819         0.055         0.377
  HS02004799HS02004480       131.422       245.397         3.680         0.335         1.933
  HS02004792HS02004799       119.095       220.682         3.497         0.327         1.853
  HS02004788HS02004792        68.401       126.868         2.388         0.235         1.309
  HS02004785HS02004788        40.736        77.768         0.969         0.074         0.471
  HS02004777HS02004785        40.062        76.672         0.909         0.067         0.434
  HS02004480HS02004478       165.970       312.634         4.244         0.375         2.196
  HS02004479HS02004480        38.150        72.982         0.884         0.079         0.462
  HS02004862HS02004870        21.018        40.121         0.536         0.043         0.271
  HS02004848HS02004852         8.058        15.280         0.167         0.011         0.077
  HS02004856HS02004862        14.073        27.343         0.284         0.019         0.133
  HS02004852HS02004856         8.065        15.292         0.167         0.011         0.077
  HS02004802HS02004478       102.895       186.907         5.163         0.576         3.055
  HS02004478WS02006287       268.284       498.604         9.364         0.945         5.225
  HS02004817HS02004807        86.893       154.873         4.957         0.568         2.972
  HS02004807HS02004802       103.120       187.258         5.194         0.580         3.075
  YS02001759YS02001757       346.619       630.312         6.964         0.481         3.403
  YS02001762YS02001759       158.500       289.044         3.408         0.239         1.690
  YS02001765YS02001762       158.320       289.013         3.427         0.241         1.702
  YS02001770YS02001767       156.706       287.021         3.195         0.209         1.551
  YS02001774YS02001770       167.487       322.821         3.238         0.213         1.564
  YS02001779YS02001774       166.512       320.809         3.325         0.227         1.625
  YS02001649YS02001757       289.755       516.192         5.804         0.405         2.780
  YS02001767YS02001765       158.561       289.661         3.449         0.243         1.714
  YS02006561YS02001783       937.865      1719.809        19.918         1.498         9.949
  YS02001783YS02001784       937.736      1719.607        19.914         1.498         9.946
  YS02001784YS02001785       945.070      1731.366        20.627         1.587        10.392
  YS02001788YS02001790       945.657      1732.321        20.700         1.596        10.439
  YS02001790YS02001791       946.729      1734.065        20.808         1.610        10.507
  YS02001791YS02001793       946.673      1733.976        20.804         1.610        10.504
  YS02001910YS02001907       330.676       600.030         8.316         0.653         4.307
  YS02001786YS02001788       945.271      1731.708        20.655         1.591        10.410
  YS02001915YS02001910       330.764       600.168         8.272         0.647         4.277
  YS02001918YS02001915       161.985       281.655         4.776         0.447         2.606
  YS02001923YS02001920       139.596       244.793         2.788         0.201         1.370
  YS02001926YS02001923       138.198       242.454         2.694         0.190         1.313
  YS02001929YS02001926       136.366       239.340         2.578         0.176         1.243
  YS02001920YS02001918       160.208       277.991         4.715         0.441         2.573
  YS02001629YS02163301       103.525       183.438         2.171         0.140         1.012
  YS02001619YS02001622       146.405       262.952         3.031         0.197         1.414
  YS02001622YS02001625       145.256       261.138         3.003         0.195         1.401
  YS02001625YS02001629       104.606       185.225         2.195         0.142         1.023
  YS02163301YS02001633       103.245       182.966         2.164         0.140         1.009
  YS02163601YS02164001       362.094       646.307         7.117         0.503         3.404
  YS02164001YS02001641       361.632       645.532         7.098         0.501         3.393
  YS02001641YS02001644       361.874       645.869         7.097         0.500         3.392
  YS02001647YS02001649       339.137       612.547         6.691         0.467         3.188
  YS02006553YS02006556       659.328      1203.345        14.319         1.105         7.230
  YS02006556YS02006558       659.314      1203.311        14.288         1.100         7.209
  YSB6556YSB1171              21.954        42.201         0.451         0.038         0.229
  YS02001907YS02006553       659.426      1203.545        14.333         1.106         7.239
  YS02006558YS02006561       937.852      1719.776        19.917         1.498         9.948
  YS02001633YS02163601       362.767       647.340         7.096         0.498         3.387
  YS02001644YS02001647       345.328       623.617         6.800         0.474         3.241
  YS02001745YS02001748       210.521       387.182         4.772         0.335         2.388
  YS02001748YS02001751       208.513       383.383         4.814         0.345         2.423
  YS02001751YS02001754       207.536       381.782         4.795         0.344         2.415
  YS02001754YS02001757       208.310       382.952         4.959         0.366         2.521
  YS02001882YS02001884         2.910         5.026         0.058         0.005         0.029
  YS02001884YS02001887         6.867        12.167         0.134         0.010         0.067
  YS02001890YS02001895       389.451       720.633         7.189         0.539         3.508
  YS02001895YS02001898       389.271       720.387         7.182         0.539         3.504
  YS02001898YS02001901       389.083       720.070         7.178         0.538         3.502
  YS02001901YS02001904       388.912       719.822         7.184         0.540         3.507
  YS02001904YS02001907       389.138       720.173         7.238         0.547         3.542
  YS02001887YS02001890       390.251       721.824         7.243         0.546         3.541
  YS02001652YS02001649       151.051       276.591         3.079         0.222         1.444
  YS02001655YS02001652       151.508       277.340         3.091         0.223         1.450
  YS02001658YS02001655       150.855       276.304         3.001         0.211         1.392
  YS02001661YS02001658       155.190       284.105         3.087         0.217         1.432
  YS02001664YS02001661       176.930       320.312         3.570         0.249         1.653
  YSB1154YSB6556              21.534        41.531         0.402         0.032         0.198
  YSB1174YSB1171              14.656        28.293         0.298         0.024         0.150
  YSB1171HS02004479           38.108        72.915         0.888         0.079         0.465
  HS02004881HS02006253        42.492        83.050         0.928         0.067         0.455
  YS02001793JiankangQianchi       947.185      1734.798        20.837         1.613        10.524
  YS02001757CaochengTiaoxuchi       633.771      1133.485        13.467         0.960         6.621
  WSF200WS02003060           848.741      1557.017        22.434         1.955        11.819
  1                         2374.207      4061.965       151.695        17.830        91.777
  CC-Pump-1                  277.909       502.279         5.843         0.419         2.874
  CC-Pump-2                  108.348       196.128         2.274         0.163         1.118
  JK-Pump-1                  232.140       425.098         5.089         0.392         2.566
  JK-Pump-2                  446.184       827.363         9.497         0.724         4.761
  XR-Pump-1                  349.191       575.378        29.019         3.553        17.920
  XR-Pump-2                  349.191       575.378        29.019         3.553        17.920
  XR-Pump-3                  349.191       575.378        29.019         3.553        17.920
  XR-Pump-4                  349.191       575.378        29.019         3.553        17.920
  

  Analysis begun on:  Tue Jul 13 17:57:54 2021
  Analysis ended on:  Tue Jul 13 17:57:58 2021
  Total elapsed time: 00:00:04