
  EPA STORM WATER MANAGEMENT MODEL - VERSION 5.1 (Build 5.3.0.dev0)
  --------------------------------------------------------------

  WARNING 04: minimum elevation drop used for Conduit WS02004404WS02004405
  WARNING 03: negative offset ignored for Link YS02001904YS02001907
  
  *********************************************************
  NOTE: The summary statistics displayed in this report are
  based on results found at every computational time step,  
  not just on results from each reporting time step.
  *********************************************************
  
  ****************
  Analysis Options
  ****************
  Flow Units ............... LPS
  Process Models:
    Rainfall/Runoff ........ YES
    RDII ................... NO
    Snowmelt ............... NO
    Groundwater ............ NO
    Flow Routing ........... YES
    Ponding Allowed ........ NO
    Water Quality .......... YES
  Infiltration Method ...... HORTON
  Flow Routing Method ...... DYNWAVE
  Surcharge Method ......... EXTRAN
  Starting Date ............ 08/28/2015 08:00:00
  Ending Date .............. 08/28/2015 15:50:00
  Antecedent Dry Days ...... 8.0
  Report Time Step ......... 00:01:00
  Wet Time Step ............ 00:01:00
  Dry Time Step ............ 00:01:00
  Routing Time Step ........ 5.00 sec
  Variable Time Step ....... YES
  Maximum Trials ........... 8
  Number of Threads ........ 4
  Head Tolerance ........... 0.001500 m
  
  
  **************************        Volume         Depth
  Runoff Quantity Continuity     hectare-m            mm
  **************************     ---------       -------
  Total Precipitation ......         5.556        12.164
  Evaporation Loss .........         0.000         0.000
  Infiltration Loss ........         1.002         2.194
  Surface Runoff ...........         3.688         8.075
  Final Storage ............         0.866         1.897
  Continuity Error (%) .....        -0.019
  
  
  **************************           COD            SS            TN            TP         NH4-N
  Runoff Quality Continuity             kg            kg            kg            kg            kg
  **************************    ----------    ----------    ----------    ----------    ----------
  Initial Buildup ..........     41378.656     70582.865      1804.177       168.684      1032.807
  Surface Buildup ..........        19.275        34.271         2.335         0.213         1.362
  Wet Deposition ...........         0.000         0.000         0.000         0.000         0.000
  Sweeping Removal .........         0.000         0.000         0.000         0.000         0.000
  Infiltration Loss ........        84.023       157.502         1.599         0.111         0.761
  BMP Removal ..............         0.000         0.000         0.000         0.000         0.000
  Surface Runoff ...........      3122.074      5752.154        60.620         4.098        28.771
  Remaining Buildup ........     38190.779     64705.500      1744.271       164.686      1004.628
  Continuity Error (%) .....         0.003         0.003         0.001         0.001         0.001
  
  
  **************************        Volume        Volume
  Flow Routing Continuity        hectare-m      10^6 ltr
  **************************     ---------     ---------
  Dry Weather Inflow .......         0.616         6.165
  Wet Weather Inflow .......         3.687        36.870
  Groundwater Inflow .......         0.000         0.000
  RDII Inflow ..............         0.000         0.000
  External Inflow ..........         0.102         1.024
  External Outflow .........         2.093        20.931
  Flooding Loss ............         1.900        19.004
  Evaporation Loss .........         0.000         0.000
  Exfiltration Loss ........         0.000         0.000
  Initial Stored Volume ....         0.076         0.761
  Final Stored Volume ......         0.619         6.189
  Continuity Error (%) .....        -2.910
  
  
  **************************           COD            SS            TN            TP         NH4-N
  Quality Routing Continuity            kg            kg            kg            kg            kg
  **************************    ----------    ----------    ----------    ----------    ----------
  Dry Weather Inflow .......      1541.201      2465.922       147.955        18.494        92.472
  Wet Weather Inflow .......      3121.286      5750.817        60.603         4.097        28.763
  Groundwater Inflow .......         0.000         0.000         0.000         0.000         0.000
  RDII Inflow ..............         0.000         0.000         0.000         0.000         0.000
  External Inflow ..........       183.418       293.469        17.608         2.201        11.005
  External Outflow .........      2413.787      4131.985       153.564        18.036        92.872
  Flooding Loss ............      1763.949      3242.093        45.897         4.023        24.186
  Exfiltration Loss ........         0.000         0.000         0.000         0.000         0.000
  Mass Reacted .............         0.000         0.000         0.000         0.000         0.000
  Initial Stored Mass ......         0.000         0.000         0.000         0.000         0.000
  Final Stored Mass ........       499.634       845.910        22.651         2.418        13.129
  Continuity Error (%) .....         3.478         3.410         1.793         1.274         1.552
  
  
  *************************
  Highest Continuity Errors
  *************************
  Node HS02004842 (14.53%)
  Node JK-storage (-13.02%)
  Node YS02001884 (10.78%)
  Node YSB1171 (2.74%)
  Node HS02004817 (2.73%)
  
  
  ***************************
  Time-Step Critical Elements
  ***************************
  Link WS02006252WS02006251 (63.64%)
  Link WS02006280WS02006229 (10.13%)
  Link WS02006235WS02006234 (5.03%)
  Link YS02006556YS02006558 (3.52%)
  Link WS02006238WS02006235 (3.20%)
  
  
  ********************************
  Highest Flow Instability Indexes
  ********************************
  Link YS02163601YS02164001 (37)
  Link YS02001629YS02163301 (37)
  Link YS02163301YS02001633 (37)
  Link WS02006113WS02006111 (36)
  Link YS02001619YS02001622 (36)
  
  
  *************************
  Routing Time Step Summary
  *************************
  Minimum Time Step           :     0.50 sec
  Average Time Step           :     1.10 sec
  Maximum Time Step           :     5.00 sec
  Percent in Steady State     :    -0.00
  Average Iterations per Step :     4.43
  Percent Not Converging      :    22.23
  
  
  ***************************
  Subcatchment Runoff Summary
  ***************************
  
  ------------------------------------------------------------------------------------------------------------------------------
                            Total      Total      Total      Total     Imperv       Perv      Total       Total     Peak  Runoff
                           Precip      Runon       Evap      Infil     Runoff     Runoff     Runoff      Runoff   Runoff   Coeff
  Subcatchment                 mm         mm         mm         mm         mm         mm         mm    10^6 ltr      LPS
  ------------------------------------------------------------------------------------------------------------------------------
  sub0                      12.16       0.00       0.00       0.65      11.27       0.20      11.47        0.01     1.99   0.943
  sub1                      12.16       0.00       0.00       1.12      10.73       0.22      10.95        0.07    14.96   0.900
  sub2                      12.16       0.00       0.00       4.23       7.58       0.27       7.85        0.07    15.08   0.646
  sub3                      12.16       0.00       0.00       4.29       7.54       0.21       7.75        0.17    34.61   0.637
  sub4                      12.16       0.00       0.00       1.19      10.57       0.14      10.71        0.22    42.34   0.881
  sub5                      12.16       0.00       0.00       0.69      11.21       0.16      11.38        0.13    26.18   0.935
  sub7                      12.16       0.00       0.00       0.88      11.01       0.22      11.22        0.04     7.95   0.923
  sub8                      12.16       0.00       0.00       0.89      11.00       0.21      11.20        0.07    14.89   0.921
  sub9                      12.16       0.00       0.00       0.89      10.99       0.21      11.20        0.05    11.18   0.921
  sub10                     12.16       0.00       0.00       0.79      11.10       0.18      11.28        0.12    25.49   0.928
  sub11                     12.16       0.00       0.00       0.78      11.12       0.19      11.31        0.13    27.35   0.930
  sub12                     12.16       0.00       0.00       1.27      10.53       0.31      10.85        0.09    20.52   0.892
  sub14                     12.16       0.00       0.00       0.89      10.99       0.20      11.20        0.11    22.08   0.920
  sub15                     12.16       0.00       0.00       3.28       8.45       0.37       8.82        0.15    32.49   0.725
  sub16                     12.16       0.00       0.00       3.51       8.11       0.50       8.61        0.09    20.36   0.708
  sub17                     12.16       0.00       0.00       3.41       8.23       0.48       8.71        0.07    16.72   0.716
  sub22                     12.16       0.00       0.00       4.80       6.89       0.43       7.32        0.46   102.62   0.602
  sub23                     12.16       0.00       0.00       4.05       7.62       0.45       8.07        0.38    85.35   0.663
  sub60                     12.16       0.00       0.00       1.42       8.82       0.04       8.86        2.69   336.84   0.729
  sub61                     12.16       0.00       0.00       2.01       8.94       0.06       9.00        2.78   399.45   0.740
  sub62                     12.16       0.00       0.00       0.92       9.73       0.05       9.78        3.01   415.79   0.804
  sub63                     12.16       0.00       0.00       3.46       7.82       0.06       7.88        2.39   361.21   0.648
  sub64                     12.16       0.00       0.00       1.78       8.47       0.04       8.51        2.59   320.97   0.699
  sub65                     12.16       0.00       0.00       1.54       8.61       0.04       8.65        2.66   326.54   0.711
  sub66                     12.16       0.00       0.00       3.49       7.26       0.04       7.30        2.24   290.53   0.600
  sub67                     12.16       0.00       0.00       0.91      10.24       0.07      10.31        3.18   494.23   0.848
  sub68                     12.16       0.00       0.00       1.64       9.40       0.06       9.46        2.91   432.52   0.778
  sub69                     12.16       0.00       0.00       1.73       9.72       0.09       9.82        2.29   383.95   0.807
  sub70                     12.16      10.02       0.00       6.98      13.09       0.56      13.65        3.12   394.93   0.615
  sub71                     12.16       0.00       0.00       0.93       9.48       0.05       9.53        2.25   296.34   0.783
  sub72                     12.16       0.00       0.00       0.83       7.62       0.02       7.64        1.56   151.13   0.628
  1                         12.16      13.29       0.00       1.37      14.64       3.94      18.57        4.36   399.24   0.730
  2                         12.16       0.00       0.00       3.02       2.89       1.65       4.55        1.82   245.52   0.374
  
  
  ****************************
  Subcatchment Washoff Summary
  ****************************
  
  ------------------------------------------------------------------------------------------
                                 COD            SS            TN            TP         NH4-N
  Subcatchment                    kg            kg            kg            kg            kg
  ------------------------------------------------------------------------------------------
  sub0                         2.176         4.147         0.037         0.003         0.018
  sub1                         9.268        18.138         0.173         0.012         0.083
  sub2                         5.563        10.570         0.119         0.008         0.054
  sub3                        13.747        25.918         0.288         0.019         0.132
  sub4                        21.530        42.606         0.429         0.026         0.205
  sub5                        21.300        41.103         0.378         0.029         0.183
  sub7                         4.748         9.424         0.090         0.006         0.043
  sub8                         7.142        14.500         0.143         0.008         0.069
  sub9                         6.100        12.212         0.118         0.007         0.057
  sub10                       17.532        34.266         0.321         0.023         0.155
  sub11                       17.086        33.770         0.320         0.022         0.154
  sub12                       14.392        27.890         0.260         0.019         0.125
  sub14                       13.021        25.823         0.247         0.016         0.119
  sub15                       16.182        30.744         0.313         0.023         0.146
  sub16                       10.318        19.555         0.197         0.015         0.092
  sub17                        9.471        17.789         0.175         0.014         0.082
  sub22                       48.821        90.813         0.932         0.070         0.434
  sub23                       29.138        56.181         0.627         0.041         0.287
  sub60                      203.703       376.194         4.083         0.248         1.956
  sub61                      251.300       461.579         4.699         0.320         2.261
  sub62                      262.762       491.326         5.157         0.324         2.474
  sub63                      185.047       334.594         3.739         0.261         1.731
  sub64                      253.867       452.095         4.687         0.339         2.235
  sub65                      260.106       465.192         4.834         0.344         2.309
  sub66                      146.558       263.078         3.037         0.197         1.417
  sub67                      388.205       718.566         6.963         0.510         3.363
  sub68                      276.714       513.393         5.318         0.356         2.539
  sub69                      247.676       464.012         4.658         0.325         2.225
  sub70                      413.256       778.342         8.287         0.572         3.877
  sub71                      173.740       327.842         3.597         0.206         1.720
  sub72                      136.329       239.316         2.558         0.174         1.230
  1                          280.724       531.718         5.751         0.398         2.660
  2                           35.485        61.812         1.030         0.062         0.437
  ------------------------------------------------------------------------------------------
  System                    3783.006      6994.507        73.566         4.996        34.873
  
  
  ******************
  Node Depth Summary
  ******************
  
  ---------------------------------------------------------------------------------
                                 Average  Maximum  Maximum  Time of Max    Reported
                                   Depth    Depth      HGL   Occurrence   Max Depth
  Node                 Type       Meters   Meters   Meters  days hr:min      Meters
  ---------------------------------------------------------------------------------
  WS02001211           JUNCTION     0.78     0.83     5.67     0  03:08        0.83
  WS02001212           JUNCTION     0.49     0.56     5.62     0  03:07        0.56
  WS02001213           JUNCTION     0.73     0.83     5.59     0  03:07        0.83
  WS02003069           JUNCTION     0.54     0.68     5.27     0  03:06        0.68
  WS02003072           JUNCTION     0.60     0.73     5.10     0  03:07        0.73
  WS02003073           JUNCTION     0.37     0.46     4.52     0  03:07        0.46
  WS02003060           JUNCTION     0.48     0.60     5.53     0  03:06        0.60
  WS02003066           JUNCTION     0.27     0.36     5.92     0  03:04        0.36
  WS02003059           JUNCTION     0.78     0.88     5.57     0  03:06        0.88
  WS02003067           JUNCTION     0.63     0.79     6.11     0  03:04        0.79
  WS02004401           JUNCTION     0.77     1.14     7.14     0  03:02        1.13
  WS02004402           JUNCTION     0.80     1.14     7.10     0  03:03        1.13
  WS02004403           JUNCTION     0.82     1.13     7.06     0  03:01        1.12
  WS02004404           JUNCTION     0.89     1.18     7.03     0  03:02        1.18
  WS02004406           JUNCTION     0.89     1.12     6.95     0  03:01        1.11
  WS02004409           JUNCTION     0.59     0.87     6.64     0  03:04        0.87
  WS02004410           JUNCTION     0.61     0.87     6.59     0  03:04        0.87
  WS02004411           JUNCTION     0.62     0.86     6.54     0  03:04        0.86
  WS02004412           JUNCTION     0.62     0.85     6.49     0  03:04        0.85
  WS02004413           JUNCTION     0.78     0.98     6.45     0  03:04        0.98
  WS02004405           JUNCTION     0.88     1.15     7.00     0  03:03        1.15
  WS02006109           JUNCTION     0.87     1.31     7.93     0  03:02        1.31
  WS02006110           JUNCTION     0.85     1.15     7.74     0  03:02        1.15
  WS02006111           JUNCTION     0.26     0.65     7.36     0  03:03        0.65
  WS02006112           JUNCTION     0.96     1.42     7.30     0  03:02        1.41
  WS02006113           JUNCTION     0.40     0.65     7.54     0  03:03        0.65
  WS02006115           JUNCTION     0.67     1.09     7.23     0  03:03        1.09
  WS02006116           JUNCTION     0.75     1.14     7.18     0  03:02        1.14
  WS02006230           JUNCTION     0.92     1.52     8.27     0  03:02        1.51
  WS02006231           JUNCTION     0.64     1.22     8.34     0  03:02        1.21
  WS02006232           JUNCTION     0.79     1.36     8.40     0  03:02        1.35
  WS02006234           JUNCTION     0.75     1.32     8.47     0  03:01        1.31
  WS02006235           JUNCTION     0.80     1.37     8.53     0  03:01        1.35
  WS02006238           JUNCTION     0.82     1.40     8.54     0  03:02        1.38
  WS02006240           JUNCTION     0.73     1.28     8.57     0  03:01        1.28
  WS02006242           JUNCTION     0.79     1.33     8.60     0  03:02        1.33
  WS02006243           JUNCTION     0.68     1.21     8.63     0  03:01        1.20
  WS02006245           JUNCTION     0.65     1.17     8.65     0  03:02        1.17
  WS02006247           JUNCTION     0.66     1.17     8.67     0  02:59        1.16
  WS02006248           JUNCTION     0.60     1.10     8.68     0  02:59        1.09
  WS02006249           JUNCTION     0.62     1.09     8.69     0  02:55        1.09
  WS02006239           JUNCTION     0.79     1.35     8.56     0  03:01        1.34
  WS02006251           JUNCTION     0.59     1.36     9.03     0  02:56        1.36
  WS02006252           JUNCTION     0.36     0.84     9.08     0  02:56        0.84
  WS02006253           JUNCTION     0.62     1.60     9.24     0  02:55        1.48
  WS02006256           JUNCTION     1.86     2.35     9.28     0  00:00        2.35
  WS02004138           JUNCTION     0.19     0.20     7.45     0  00:00        0.19
  WS02004139           JUNCTION     0.72     0.77     5.68     0  03:08        0.77
  WS02004407           JUNCTION     0.26     0.37     6.68     0  03:03        0.37
  WS02006228           JUNCTION     0.90     1.44     8.09     0  03:02        1.43
  WS02006229           JUNCTION     0.88     1.49     8.18     0  03:02        1.48
  WS02006280           JUNCTION     0.07     0.20     8.47     0  03:02        0.20
  WS02006284           JUNCTION     0.37     0.56     8.96     0  03:02        0.56
  WS02006287           JUNCTION     0.10     0.30     9.25     0  03:01        0.30
  WSF200               JUNCTION     0.26     0.40     5.64     0  03:04        0.40
  HS02004901           JUNCTION     0.12     0.29    10.12     0  03:01        0.29
  HS02004881           JUNCTION     0.01     0.04     9.07     0  02:56        0.04
  HS02004876           JUNCTION     0.04     0.12     9.15     0  03:01        0.12
  HS02004870           JUNCTION     0.01     0.07     9.35     0  03:01        0.07
  HS02004862           JUNCTION     0.02     0.08     9.46     0  03:01        0.08
  HS02004856           JUNCTION     0.08     0.13     9.55     0  03:01        0.13
  HS02004852           JUNCTION     0.01     0.05     9.56     0  03:01        0.05
  HS02004848           JUNCTION     0.01     0.05     9.65     0  03:01        0.05
  HS02004842           JUNCTION     0.34     0.38     9.65     0  03:01        0.38
  HS02004837           JUNCTION     0.03     0.07     9.65     0  03:01        0.07
  HS02004830           JUNCTION     0.04     0.08     9.55     0  03:01        0.08
  HS02004824           JUNCTION     0.02     0.06     9.47     0  03:01        0.06
  HS02004817           JUNCTION     0.44     0.61     9.45     0  03:01        0.61
  HS02004807           JUNCTION     0.13     0.28     9.45     0  03:01        0.28
  HS02004802           JUNCTION     0.16     0.31     9.44     0  03:01        0.31
  HS02004799           JUNCTION     0.12     0.35     9.56     0  03:01        0.35
  HS02004792           JUNCTION     0.03     0.15     9.67     0  03:01        0.15
  HS02004788           JUNCTION     0.03     0.11    10.01     0  03:01        0.11
  HS02004785           JUNCTION     0.05     0.18    10.09     0  03:01        0.18
  HS02004777           JUNCTION     0.15     0.31    10.11     0  03:01        0.31
  HS02004770           JUNCTION     0.12     0.29    10.12     0  03:01        0.29
  HS02004480           JUNCTION     0.08     0.28     9.52     0  03:01        0.28
  HS02004479           JUNCTION     0.12     0.32     9.52     0  03:01        0.32
  HS02004478           JUNCTION     0.06     0.20     9.42     0  03:01        0.20
  YS02001745           JUNCTION     0.73     0.91     8.43     0  03:00        0.91
  YS02001748           JUNCTION     1.14     1.44     8.52     0  02:27        1.34
  YS02001751           JUNCTION     1.32     1.58     8.46     0  02:18        1.54
  YS02001754           JUNCTION     1.58     1.82     8.43     0  02:54        1.81
  YS02001762           JUNCTION     1.78     2.03     8.43     0  03:20        2.03
  YS02001765           JUNCTION     1.73     1.98     8.43     0  03:20        1.97
  YS02001767           JUNCTION     1.69     1.93     8.42     0  03:20        1.93
  YS02001770           JUNCTION     1.69     1.92     8.41     0  02:56        1.91
  YS02001774           JUNCTION     1.76     1.98     8.40     0  02:59        1.97
  YS02001779           JUNCTION     1.50     1.68     8.37     0  02:36        1.68
  YS02001882           JUNCTION     0.53     1.62     8.33     0  03:00        1.61
  YS02001884           JUNCTION     0.62     1.72     8.34     0  03:00        1.72
  YS02001759           JUNCTION     1.81     2.07     8.44     0  02:55        2.06
  YS02001887           JUNCTION     0.70     1.80     8.33     0  03:00        1.79
  YS02001890           JUNCTION     0.73     1.81     8.32     0  02:54        1.81
  YS02001898           JUNCTION     0.50     1.56     8.29     0  02:58        1.56
  YS02001901           JUNCTION     0.62     1.67     8.28     0  03:00        1.66
  YS02001904           JUNCTION     0.59     1.63     8.26     0  02:58        1.63
  YS02001907           JUNCTION     0.93     1.96     8.25     0  02:46        1.96
  YS02001910           JUNCTION     0.72     1.77     8.28     0  02:48        1.76
  YS02001915           JUNCTION     0.51     1.58     8.29     0  02:48        1.57
  YS02001918           JUNCTION     0.26     1.24     8.30     0  02:48        1.23
  YS02001619           JUNCTION     1.28     1.55     8.48     0  02:24        1.47
  YS02001629           JUNCTION     1.64     1.85     8.40     0  02:24        1.84
  YS02001641           JUNCTION     1.74     1.93     8.37     0  03:10        1.93
  YS02001644           JUNCTION     1.74     1.92     8.35     0  02:35        1.92
  YS02001652           JUNCTION     1.59     2.16     8.76     0  02:43        1.87
  YS02001655           JUNCTION     1.35     2.12     8.97     0  02:19        1.66
  YS02001920           JUNCTION     0.36     1.30     8.31     0  02:48        1.30
  YS02001923           JUNCTION     0.20     1.06     8.32     0  02:48        1.05
  YS02001926           JUNCTION     0.27     0.87     8.32     0  02:48        0.87
  YS02001929           JUNCTION     0.15     0.63     8.32     0  02:47        0.62
  YS02001658           JUNCTION     1.08     2.24     9.39     0  02:23        1.43
  YS02001661           JUNCTION     0.84     2.34     9.74     0  02:43        1.25
  YS02001664           JUNCTION     0.37     0.58     8.50     0  03:50        0.56
  YS02001622           JUNCTION     1.31     1.53     8.44     0  02:24        1.50
  YS02001633           JUNCTION     1.73     1.94     8.40     0  02:57        1.94
  YS02001649           JUNCTION     1.79     2.05     8.44     0  02:38        2.05
  YS02001757           JUNCTION     1.91     2.17     8.44     0  03:20        2.16
  YS02001895           JUNCTION     0.49     1.56     8.31     0  03:00        1.55
  YS02001625           JUNCTION     1.59     1.78     8.38     0  02:24        1.78
  YS02163301           JUNCTION     1.67     1.88     8.40     0  02:51        1.88
  YS02163601           JUNCTION     1.78     1.99     8.39     0  02:59        1.98
  YS02164001           JUNCTION     1.72     1.92     8.38     0  02:35        1.92
  YS02001647           JUNCTION     1.57     1.80     8.41     0  02:43        1.79
  YSB1154              JUNCTION     0.26     0.47     9.52     0  03:01        0.47
  YSB6556              JUNCTION     0.15     0.35     9.52     0  03:01        0.35
  YSB1174              JUNCTION     0.21     0.41     9.52     0  03:01        0.41
  YSB1171              JUNCTION     0.41     0.62     9.52     0  03:01        0.62
  YS02006553           JUNCTION     0.93     1.96     8.25     0  02:56        1.96
  YS02006561           JUNCTION     0.29     1.06     7.72     0  02:59        1.05
  YS02006556           JUNCTION     0.90     1.92     8.23     0  03:00        1.92
  YS02006558           JUNCTION     0.94     1.96     8.23     0  02:59        1.96
  YS02001783           JUNCTION     0.50     1.45     7.59     0  03:00        1.44
  YS02001784           JUNCTION     0.52     1.39     7.45     0  02:59        1.38
  YS02001786           JUNCTION     0.46     1.29     7.32     0  02:19        1.22
  YS02001788           JUNCTION     0.39     1.26     7.24     0  02:19        1.08
  YS02001790           JUNCTION     0.50     1.96     7.60     0  06:23        1.24
  YS02001791           JUNCTION     0.46     2.72     8.19     0  02:18        1.22
  YS02001793           JUNCTION     0.61     2.53     7.36     0  02:18        1.79
  WSC                  OUTFALL      0.37     0.46     1.13     0  03:08        0.46
  JK-storage           STORAGE      2.45     5.80     6.60     0  02:19        5.80
  CC-storage           STORAGE      1.16     1.40     8.40     0  03:24        1.40
  XR-storage           STORAGE      6.62     7.72     5.72     0  02:57        7.72
  
  
  *******************
  Node Inflow Summary
  *******************
  
  -------------------------------------------------------------------------------------------------
                                  Maximum  Maximum                  Lateral       Total        Flow
                                  Lateral    Total  Time of Max      Inflow      Inflow     Balance
                                   Inflow   Inflow   Occurrence      Volume      Volume       Error
  Node                 Type           LPS      LPS  days hr:min    10^6 ltr    10^6 ltr     Percent
  -------------------------------------------------------------------------------------------------
  WS02001211           JUNCTION      7.35   390.35     0  03:25       0.207        10.1       0.400
  WS02001212           JUNCTION      0.00   393.11     0  03:25           0        10.1       0.235
  WS02001213           JUNCTION      0.00   395.62     0  03:25           0        10.1       0.287
  WS02003069           JUNCTION      0.32  1227.58     0  03:06     0.00902          21       0.162
  WS02003072           JUNCTION      0.00  1227.47     0  03:07           0          21       0.196
  WS02003073           JUNCTION      1.82  1229.35     0  03:07      0.0514          21       0.228
  WS02003060           JUNCTION     16.53  1227.20     0  03:06       0.466          21       0.152
  WS02003066           JUNCTION      0.00   830.09     0  03:05           0        10.6       0.040
  WS02003059           JUNCTION      0.00   399.08     0  03:24           0          10       0.395
  WS02003067           JUNCTION      0.00   829.96     0  03:04           0        10.6       0.083
  WS02004401           JUNCTION      0.00   831.25     0  03:03           0        10.8       0.166
  WS02004402           JUNCTION      0.00   832.15     0  03:03           0        10.8       0.160
  WS02004403           JUNCTION      0.00   831.66     0  03:03           0        10.7       0.149
  WS02004404           JUNCTION      0.16   831.95     0  03:03     0.00457        10.7       0.113
  WS02004406           JUNCTION      0.00   831.11     0  03:03           0        10.7       0.279
  WS02004409           JUNCTION      0.00   830.76     0  03:03           0        10.7       0.129
  WS02004410           JUNCTION      0.00   830.30     0  03:03           0        10.6       0.152
  WS02004411           JUNCTION      0.00   830.07     0  03:04           0        10.6       0.160
  WS02004412           JUNCTION      0.00   829.95     0  03:04           0        10.6       0.177
  WS02004413           JUNCTION      0.00   829.92     0  03:04           0        10.6       0.269
  WS02004405           JUNCTION      0.04   832.51     0  03:03     0.00107        10.7       0.174
  WS02006109           JUNCTION      1.23   818.65     0  03:02      0.0347        10.8       0.153
  WS02006110           JUNCTION      0.00   818.53     0  03:02           0        10.8       0.127
  WS02006111           JUNCTION      0.00   817.71     0  03:03           0        10.8       0.018
  WS02006112           JUNCTION     16.72   830.84     0  03:03      0.0747        10.8       0.212
  WS02006113           JUNCTION      0.00   818.49     0  03:02           0        10.8       0.054
  WS02006115           JUNCTION      0.00   830.77     0  03:03           0        10.8       0.143
  WS02006116           JUNCTION      0.00   830.97     0  03:03           0        10.8       0.144
  WS02006230           JUNCTION     10.28   532.26     0  06:40        0.29        8.62       0.135
  WS02006231           JUNCTION      0.00   522.20     0  06:40           0        8.33      -0.009
  WS02006232           JUNCTION      0.00   522.54     0  06:40           0        8.34       0.119
  WS02006234           JUNCTION      0.00   523.11     0  06:40           0        8.34       0.013
  WS02006235           JUNCTION      0.00   523.86     0  06:40           0        8.38       0.069
  WS02006238           JUNCTION      0.00   416.30     0  07:30           0        5.07       0.058
  WS02006240           JUNCTION      0.00   414.79     0  07:30           0        5.03       0.048
  WS02006242           JUNCTION      0.00   415.18     0  07:30           0        5.02       0.055
  WS02006243           JUNCTION      0.00   415.84     0  07:30           0        5.01      -0.001
  WS02006245           JUNCTION      0.00   416.38     0  07:30           0        5.02       0.055
  WS02006247           JUNCTION      0.00   416.16     0  07:30           0        5.02       0.011
  WS02006248           JUNCTION      0.00   416.35     0  07:30           0        5.02      -0.008
  WS02006249           JUNCTION      0.00   487.41     0  03:00           0        5.34       0.025
  WS02006239           JUNCTION      0.00   415.64     0  07:30           0        5.05       0.056
  WS02006251           JUNCTION      0.08   487.27     0  03:00     0.00217        5.39      -0.003
  WS02006252           JUNCTION      0.00   400.00     0  03:00           0        4.92       0.003
  WS02006253           JUNCTION      1.99   107.32     0  02:54     0.00928       0.467      -0.122
  WS02006256           JUNCTION      0.00   983.00     0  00:00           0        10.1      -0.007
  WS02004138           JUNCTION      0.00   380.00     0  00:00           0        9.98       0.065
  WS02004139           JUNCTION      0.32   396.51     0  00:00     0.00905        9.98       0.454
  WS02004407           JUNCTION      0.00   830.92     0  03:03           0        10.7       0.054
  WS02006228           JUNCTION      0.00   817.31     0  03:02           0        10.8       0.111
  WS02006229           JUNCTION      0.00   817.55     0  03:02           0        10.8       0.088
  WS02006280           JUNCTION      0.00   413.62     0  03:02           0        2.17       0.006
  WS02006284           JUNCTION      0.10   413.57     0  03:02      0.0027        2.17       0.041
  WS02006287           JUNCTION      0.00   413.22     0  03:01           0        2.17       0.033
  WSF200               JUNCTION      0.00   830.14     0  03:05           0        10.6       0.036
  HS02004901           JUNCTION     20.36    20.36     0  03:01      0.0902      0.0904       1.990
  HS02004881           JUNCTION      7.95    84.19     0  03:01      0.0378        0.41       0.110
  HS02004876           JUNCTION     14.96    76.75     0  03:01      0.0728       0.373       0.148
  HS02004870           JUNCTION     14.89    62.15     0  03:01      0.0716         0.3       0.037
  HS02004862           JUNCTION     15.28    47.68     0  03:01      0.0788       0.229       0.077
  HS02004856           JUNCTION     11.18    32.72     0  03:01      0.0539       0.152       0.963
  HS02004852           JUNCTION      0.00    21.94     0  03:01           0      0.0979       0.059
  HS02004848           JUNCTION     34.61    34.61     0  03:01       0.174       0.174       0.028
  HS02004842           JUNCTION      0.00    12.41     0  03:01           0      0.0895      16.998
  HS02004837           JUNCTION     31.84    43.95     0  03:01       0.303        0.38       0.214
  HS02004830           JUNCTION      0.15    43.86     0  03:01     0.00423        0.37       0.334
  HS02004824           JUNCTION     42.39    85.90     0  03:01       0.225       0.594       0.091
  HS02004817           JUNCTION      0.60    86.28     0  03:01      0.0169        0.61       2.809
  HS02004807           JUNCTION     27.35   112.31     0  03:01       0.131       0.726       0.604
  HS02004802           JUNCTION      0.00   111.37     0  03:01           0       0.723       0.549
  HS02004799           JUNCTION     22.08   258.93     0  03:01       0.107        1.24       0.223
  HS02004792           JUNCTION    102.90   237.99     0  03:01        0.47        1.14       0.036
  HS02004788           JUNCTION     34.16   135.93     0  03:01       0.199       0.669       0.059
  HS02004785           JUNCTION      0.15   103.52     0  03:01     0.00423       0.471       0.106
  HS02004777           JUNCTION      0.03   104.16     0  03:01    0.000846       0.472       1.115
  HS02004770           JUNCTION     85.35   105.10     0  03:01       0.385       0.473       0.659
  HS02004480           JUNCTION      0.00   302.45     0  03:01           0        1.46       0.077
  HS02004479           JUNCTION      0.00    44.91     0  03:02           0       0.232       0.317
  HS02004478           JUNCTION      0.00   413.08     0  03:01           0        2.17       0.014
  YS02001745           JUNCTION    336.84   374.39     0  02:27        2.69        2.69       0.405
  YS02001748           JUNCTION      0.04   535.30     0  02:27     0.00127        2.68       0.813
  YS02001751           JUNCTION      0.01   343.13     0  03:01     0.00031        2.65       0.899
  YS02001754           JUNCTION      0.26   343.90     0  03:01     0.00733        2.64       0.956
  YS02001762           JUNCTION      0.00   291.30     0  02:39           0        1.97       1.095
  YS02001765           JUNCTION      0.00   290.78     0  02:39           0        1.97       1.265
  YS02001767           JUNCTION      0.54   291.29     0  02:39      0.0151        1.99       1.825
  YS02001770           JUNCTION    415.94   535.17     0  03:01        3.01         3.3       0.970
  YS02001774           JUNCTION      0.00   536.05     0  03:01           0        1.58       1.621
  YS02001779           JUNCTION      0.01   536.26     0  03:01    0.000141        1.55       1.008
  YS02001882           JUNCTION      0.00    12.62     0  02:21           0      0.0214      12.038
  YS02001884           JUNCTION      0.00    23.17     0  02:21           0      0.0583      12.081
  YS02001759           JUNCTION    399.49   575.01     0  02:39        2.78        4.43       0.523
  YS02001887           JUNCTION    494.68   494.68     0  03:01        3.19        3.22       0.268
  YS02001890           JUNCTION      0.00   495.42     0  03:01           0        3.18       0.297
  YS02001898           JUNCTION      0.00   495.51     0  03:01           0        3.16       0.107
  YS02001901           JUNCTION      0.00   495.75     0  03:01           0        3.16       0.220
  YS02001904           JUNCTION      0.00   496.34     0  03:01           0        3.16       0.204
  YS02001907           JUNCTION      0.00   949.10     0  03:01           0        7.02       0.352
  YS02001910           JUNCTION      0.00   454.84     0  03:01           0        3.87       0.313
  YS02001915           JUNCTION    296.36   454.51     0  03:01        2.25        3.88       0.157
  YS02001918           JUNCTION      0.00   209.91     0  03:30           0        1.64       0.120
  YS02001619           JUNCTION    290.53   290.53     0  03:01        2.24        2.24       0.554
  YS02001629           JUNCTION      0.00   190.40     0  02:17           0        1.69       1.746
  YS02001641           JUNCTION      0.00   397.07     0  02:35           0        4.25       0.502
  YS02001644           JUNCTION    321.01  1310.23     0  03:01        2.59        9.17       0.285
  YS02001652           JUNCTION      0.00   381.56     0  03:01           0        2.35       1.002
  YS02001655           JUNCTION      0.15   380.49     0  03:01     0.00434        2.37       1.063
  YS02001920           JUNCTION      2.87   194.32     0  03:29      0.0809        1.63       0.190
  YS02001923           JUNCTION      0.04   165.73     0  02:48     0.00106        1.55       0.056
  YS02001926           JUNCTION      0.05   154.87     0  03:01     0.00147        1.56       0.209
  YS02001929           JUNCTION    151.13   151.13     0  03:01        1.56        1.56       0.037
  YS02001658           JUNCTION      0.00   595.78     0  02:23           0        2.41       0.955
  YS02001661           JUNCTION      0.00   626.09     0  02:38           0        2.75      -0.419
  YS02001664           JUNCTION    361.21   361.21     0  03:01        2.38        2.74       0.236
  YS02001622           JUNCTION      0.00   291.32     0  03:01           0        2.22       1.442
  YS02001633           JUNCTION    326.74   398.27     0  02:35        2.66        4.31       0.755
  YS02001649           JUNCTION      0.00   826.41     0  02:35           0        5.44       0.694
  YS02001757           JUNCTION      0.00  1576.68     0  02:35           0        9.74       0.956
  YS02001895           JUNCTION      0.00   495.27     0  03:01           0        3.17       0.163
  YS02001625           JUNCTION      0.00   290.49     0  03:00           0        2.19       1.799
  YS02163301           JUNCTION      0.00   211.39     0  02:25           0        1.67       1.466
  YS02163601           JUNCTION      0.11   398.66     0  02:35      0.0031        4.27       0.708
  YS02164001           JUNCTION      0.00   397.92     0  02:35           0        4.25       0.486
  YS02001647           JUNCTION      0.00   608.58     0  03:01           0        4.49       0.636
  YSB1154              JUNCTION     26.18    26.18     0  03:01       0.129        0.13       1.130
  YSB6556              JUNCTION      0.00    25.82     0  03:01           0        0.13       0.969
  YSB1174              JUNCTION     20.52    20.52     0  03:01      0.0948      0.0953       1.368
  YSB1171              JUNCTION      0.00    45.30     0  03:01           0       0.231       2.821
  YS02006553           JUNCTION      0.00   704.65     0  03:31           0        6.59       0.236
  YS02006561           JUNCTION      0.00  1022.82     0  02:47           0        9.47       0.004
  YS02006556           JUNCTION      0.00   704.55     0  03:31           0         6.6       0.177
  YS02006558           JUNCTION    433.40  1023.57     0  02:47        2.93         9.5       0.057
  YS02001783           JUNCTION      0.00  1022.85     0  02:47           0        9.47       0.025
  YS02001784           JUNCTION      1.06  1023.65     0  02:47      0.0299         9.5       0.039
  YS02001786           JUNCTION      0.06  1023.76     0  02:47     0.00159         9.5       0.037
  YS02001788           JUNCTION      0.07  1023.90     0  02:47       0.002         9.5       0.024
  YS02001790           JUNCTION      0.15  1024.03     0  02:47     0.00437         9.5       0.016
  YS02001791           JUNCTION      0.00  1024.29     0  02:47           0         9.5       0.012
  YS02001793           JUNCTION      0.00  1023.88     0  02:47           0         9.5      -0.039
  WSC                  OUTFALL       0.00  1229.42     0  03:08           0        20.9       0.000
  JK-storage           STORAGE       0.00  1023.85     0  02:47           0        9.65     -11.521
  CC-storage           STORAGE       0.00  1576.55     0  02:35           0        8.63       0.744
  XR-storage           STORAGE     844.76   844.76     0  03:01        11.8        12.4      -0.003
  
  
  **********************
  Node Surcharge Summary
  **********************
  
  Surcharging occurs when water rises above the top of the highest conduit.
  ---------------------------------------------------------------------
                                               Max. Height   Min. Depth
                                   Hours       Above Crown    Below Rim
  Node                 Type      Surcharged         Meters       Meters
  ---------------------------------------------------------------------
  WS02004401           JUNCTION        0.34          0.137        1.523
  WS02004402           JUNCTION        0.38          0.139        1.601
  WS02004403           JUNCTION        0.38          0.125        1.905
  WS02004404           JUNCTION        0.65          0.179        2.601
  WS02004406           JUNCTION        0.55          0.117        2.333
  WS02004405           JUNCTION        0.60          0.155        2.645
  WS02006109           JUNCTION        5.10          0.492        1.328
  WS02006110           JUNCTION        1.74          0.242        1.608
  WS02006112           JUNCTION        2.50          0.416        1.264
  WS02006115           JUNCTION        0.21          0.079        2.171
  WS02006116           JUNCTION        0.23          0.084        2.206
  WS02006230           JUNCTION        1.38          0.441        1.129
  WS02006231           JUNCTION        2.02          0.506        1.024
  WS02006232           JUNCTION        4.83          0.664        0.816
  WS02006234           JUNCTION        3.86          0.598        0.642
  WS02006235           JUNCTION        4.50          0.658        0.632
  WS02006238           JUNCTION        4.59          0.678        0.752
  WS02006240           JUNCTION        4.11          0.571        0.819
  WS02006242           JUNCTION        4.31          0.602        0.218
  WS02006243           JUNCTION        2.96          0.497        0.273
  WS02006245           JUNCTION        2.78          0.459        0.391
  WS02006247           JUNCTION        2.82          0.460        0.300
  WS02006248           JUNCTION        2.46          0.375        0.005
  WS02006249           JUNCTION        2.57          0.390        0.000
  WS02006239           JUNCTION        4.25          0.611        0.679
  WS02006251           JUNCTION        0.97          0.332        0.848
  WS02006252           JUNCTION        2.89          0.443        0.657
  WS02006253           JUNCTION        1.02          0.555        1.925
  WS02006256           JUNCTION        6.71          2.050        0.000
  WS02006228           JUNCTION        5.06          0.610        1.590
  YS02001748           JUNCTION        5.30          0.360        0.830
  YS02001751           JUNCTION        5.49          0.585        0.615
  YS02001754           JUNCTION        5.69          0.773        0.377
  YS02001762           JUNCTION        5.87          1.035        0.115
  YS02001765           JUNCTION        5.84          0.980        0.120
  YS02001767           JUNCTION        5.81          0.934        0.096
  YS02001770           JUNCTION        5.80          0.886        0.034
  YS02001774           JUNCTION        5.86          0.978        0.072
  YS02001779           JUNCTION        5.67          0.680        0.000
  YS02001882           JUNCTION        0.94          0.616        0.214
  YS02001884           JUNCTION        0.96          0.659        0.211
  YS02001759           JUNCTION        5.89          1.072        0.138
  YS02001887           JUNCTION        1.04          0.747        0.203
  YS02001890           JUNCTION        1.07          0.760        0.000
  YS02001898           JUNCTION        0.90          0.527        0.213
  YS02001901           JUNCTION        1.01          0.674        0.196
  YS02001904           JUNCTION        0.98          0.635        0.215
  YS02001907           JUNCTION        1.81          0.950        0.000
  YS02001910           JUNCTION        1.12          0.773        0.327
  YS02001915           JUNCTION        0.92          0.575        0.425
  YS02001918           JUNCTION        0.69          0.237        0.573
  YS02001619           JUNCTION        5.47          0.551        0.059
  YS02001629           JUNCTION        5.48          0.470        0.000
  YS02001641           JUNCTION        5.85          0.934        0.166
  YS02001644           JUNCTION        5.85          0.920        0.000
  YS02001652           JUNCTION        5.73          1.130        0.000
  YS02001655           JUNCTION        5.50          1.119        0.081
  YS02001920           JUNCTION        0.73          0.304        0.836
  YS02001658           JUNCTION        5.33          1.245        0.055
  YS02001661           JUNCTION        0.23          1.270        0.120
  YS02001622           JUNCTION        5.51          0.534        0.086
  YS02001633           JUNCTION        5.83          0.923        0.137
  YS02001649           JUNCTION        5.88          1.050        0.000
  YS02001757           JUNCTION        5.98          1.174        0.036
  YS02001895           JUNCTION        0.91          0.564        0.186
  YS02001625           JUNCTION        5.76          0.780        0.000
  YS02163301           JUNCTION        5.81          0.882        0.148
  YS02163601           JUNCTION        5.87          0.988        0.092
  YS02164001           JUNCTION        5.83          0.917        0.183
  YS02001647           JUNCTION        5.75          0.803        0.097
  YS02006553           JUNCTION        1.88          0.965        0.225
  YS02006561           JUNCTION        0.73          0.260        0.890
  YS02006556           JUNCTION        1.35          0.880        0.470
  YS02006558           JUNCTION        1.32          0.861        0.539
  YS02001783           JUNCTION        1.29          0.649        0.951
  YS02001784           JUNCTION        1.27          0.586        0.904
  YS02001786           JUNCTION        1.22          0.485        0.945
  YS02001788           JUNCTION        1.16          0.459        1.021
  YS02001790           JUNCTION        1.78          1.157        0.000
  YS02001791           JUNCTION        1.87          1.920        0.000
  YS02001793           JUNCTION        2.14          1.532        1.068
  
  
  *********************
  Node Flooding Summary
  *********************
  
  Flooding refers to all water that overflows a node, whether it ponds or not.
  --------------------------------------------------------------------------
                                                             Total   Maximum
                                 Maximum   Time of Max       Flood    Ponded
                        Hours       Rate    Occurrence      Volume     Depth
  Node                 Flooded       LPS   days hr:min    10^6 ltr    Meters
  --------------------------------------------------------------------------
  WS02006249              0.88    264.26      0  03:02       0.325     0.000
  WS02006256              4.01    978.40      0  00:00       6.746     0.000
  YS02001779              2.37    535.92      0  03:01       1.526     0.000
  YS02001890              0.01      1.43      0  02:59       0.000     0.000
  YS02001907              0.54    399.51      0  03:01       0.411     0.000
  YS02001629              0.01     22.30      0  02:24       0.000     0.000
  YS02001644              3.39   1310.20      0  03:01       7.002     0.000
  YS02001652              0.01      7.44      0  02:43       0.000     0.000
  YS02001649              0.05     28.72      0  02:43       0.002     0.000
  YS02001625              1.20    236.82      0  03:01       0.464     0.000
  YS02001790              0.01    116.00      0  06:23       0.000     0.000
  YS02001791              0.01    252.73      0  02:18       0.000     0.000
  JK-storage              0.66    658.61      0  02:20       0.707     0.000
  XR-storage              3.02    464.68      0  03:01       1.819     0.000
  
  
  **********************
  Storage Volume Summary
  **********************
  
  --------------------------------------------------------------------------------------------------
                         Average     Avg  Evap Exfil       Maximum     Max    Time of Max    Maximum
                          Volume    Pcnt  Pcnt  Pcnt        Volume    Pcnt     Occurrence    Outflow
  Storage Unit           1000 m3    Full  Loss  Loss       1000 m3    Full    days hr:min        LPS
  --------------------------------------------------------------------------------------------------
  JK-storage               0.123      42     0     0         0.291     100       0  02:19     983.00
  CC-storage               3.242      21     0     0         3.896      25       0  03:24     400.00
  XR-storage               0.795      86     0     0         0.926     100       0  02:57     380.00
  
  
  ***********************
  Outfall Loading Summary
  ***********************
  
  ---------------------------------------------------------------------------------------------------------------------------------
                         Flow       Avg       Max       Total         Total         Total         Total         Total         Total
                         Freq      Flow      Flow      Volume           COD            SS            TN            TP         NH4-N
  Outfall Node           Pcnt       LPS       LPS    10^6 ltr            kg            kg            kg            kg            kg
  ---------------------------------------------------------------------------------------------------------------------------------
  WSC                   99.98    848.78   1229.42      20.930      2414.004      4132.348       153.580        18.038        92.883
  ---------------------------------------------------------------------------------------------------------------------------------
  System                99.98    848.78   1229.42      20.930      2414.004      4132.348       153.580        18.038        92.883
  
  
  ********************
  Link Flow Summary
  ********************
  
  -----------------------------------------------------------------------------
                                 Maximum  Time of Max   Maximum    Max/    Max/
                                  |Flow|   Occurrence   |Veloc|    Full    Full
  Link                 Type          LPS  days hr:min     m/sec    Flow   Depth
  -----------------------------------------------------------------------------
  WS02003066WSF200     CONDUIT    830.14     0  03:05      2.95    0.14    0.30
  WS02006287WS02006284 CONDUIT    413.47     0  03:02      2.04    0.19    0.30
  WS02006284WS02006280 CONDUIT    413.62     0  03:02      2.28    0.17    0.28
  WS02006280WS02006229 CONDUIT    413.62     0  03:02      3.59    0.09    0.25
  WS02006229WS02006228 CONDUIT    817.31     0  03:02      1.63    2.71    1.00
  WS02006256WS02006235 CONDUIT    288.60     0  00:00      4.23    3.05    1.00
  WS02006253WS02006251 CONDUIT    103.75     0  02:55      0.57    0.31    1.00
  WS02006252WS02006251 CONDUIT    401.14     0  04:49      3.19    1.47    1.00
  WS02006251WS02006249 CONDUIT    487.41     0  03:00      1.27    1.41    1.00
  WS02006249WS02006248 CONDUIT    416.35     0  07:30      1.11    2.28    1.00
  WS02006248WS02006247 CONDUIT    416.16     0  07:30      1.08    0.91    1.00
  WS02006247WS02006245 CONDUIT    416.38     0  07:30      1.08    3.30    1.00
  WS02006245WS02006243 CONDUIT    415.84     0  07:30      1.08    1.23    1.00
  WS02006243WS02006242 CONDUIT    415.18     0  07:30      1.08    0.89    1.00
  WS02006242WS02006240 CONDUIT    414.79     0  07:30      1.08    1.65    1.00
  WS02006240WS02006239 CONDUIT    415.64     0  07:30      1.08    1.31    1.00
  WS02006239WS02006238 CONDUIT    416.30     0  07:30      1.08    1.33    1.00
  WS02006238WS02006235 CONDUIT    417.70     0  07:30      1.46    0.93    1.00
  WS02006235WS02006234 CONDUIT    523.11     0  06:40      1.36    5.52    1.00
  WS02006234WS02006232 CONDUIT    522.54     0  06:40      1.39    1.06    1.00
  WS02006232WS02006231 CONDUIT    522.20     0  06:40      1.36    1.09    1.00
  WS02006231WS02006230 CONDUIT    521.98     0  06:40      1.36    7.92    1.00
  WS02006230WS02006229 CONDUIT    535.10     0  06:40      1.39   11.91    1.00
  WS02006228WS02006109 CONDUIT    817.42     0  03:02      1.63    3.57    1.00
  WS02006116WS02004401 CONDUIT    831.25     0  03:03      1.06    1.15    1.00
  WS02006115WS02006116 CONDUIT    830.97     0  03:03      1.06    1.07    1.00
  WS02006113WS02006111 CONDUIT    817.71     0  03:03      2.58    0.98    0.81
  WS02006112WS02006115 CONDUIT    830.77     0  03:03      1.06    0.49    1.00
  WS02006111WS02006112 CONDUIT    818.56     0  03:03      1.73    0.39    0.90
  WS02006110WS02006113 CONDUIT    818.49     0  03:02      1.74    0.74    0.90
  WS02006109WS02006110 CONDUIT    818.53     0  03:02      1.63    1.57    1.00
  WS02004411WS02004412 CONDUIT    829.95     0  03:04      1.16    1.18    0.85
  WS02004401WS02004402 CONDUIT    832.15     0  03:03      1.06    1.00    1.00
  WS02004413WS02003067 CONDUIT    829.96     0  03:04      1.42    0.36    0.70
  WS02004412WS02004413 CONDUIT    829.92     0  03:04      1.10    0.56    0.91
  WS02004410WS02004411 CONDUIT    830.07     0  03:04      1.15    1.13    0.86
  WS02004409WS02004410 CONDUIT    830.30     0  03:03      1.15    1.07    0.87
  WS02004407WS02004409 CONDUIT    830.76     0  03:03      1.64    0.29    0.62
  WS02004406WS02004407 CONDUIT    830.92     0  03:03      1.45    0.37    0.69
  WS02004405WS02004406 CONDUIT    831.11     0  03:03      1.06    1.64    1.00
  WS02004404WS02004405 CONDUIT    832.47     0  03:03      1.06    8.16    1.00
  WS02004403WS02004404 CONDUIT    831.79     0  03:03      1.06    0.60    1.00
  WS02004402WS02004403 CONDUIT    831.66     0  03:03      1.06    1.19    1.00
  WS02004139WS02001211 CONDUIT    383.00     0  03:25      0.90    0.48    0.63
  WS02004138WS02004139 CONDUIT    396.19     0  00:00      3.65    0.08    0.46
  WS02003067WS02003066 CONDUIT    830.09     0  03:05      1.54    0.27    0.48
  WS02001213WS02003059 CONDUIT    399.08     0  03:24      0.88    0.66    0.84
  WS02001212WS02001213 CONDUIT    395.62     0  03:25      1.32    0.61    0.53
  WS02001211WS02001212 CONDUIT    393.11     0  03:25      0.78    0.30    0.69
  WS02003072WS02003073 CONDUIT   1227.52     0  03:07      1.90    2.65    0.56
  WS02003069WS02003072 CONDUIT   1227.47     0  03:07      1.77    0.59    0.59
  WS02003060WS02003069 CONDUIT   1227.26     0  03:06      1.99    0.48    0.54
  WS02003059WS02003060 CONDUIT    403.75     0  03:24      0.95    0.26    0.74
  HS02004901HS02004770 CONDUIT     20.53     0  03:01      0.07    0.08    0.42
  HS02004876HS02004881 CONDUIT     76.55     0  03:01      0.95    0.81    0.12
  HS02004870HS02004876 CONDUIT     61.90     0  03:01      0.65    0.04    0.14
  HS02004842HS02004848 CONDUIT     12.41     0  03:01      0.06    0.01    0.31
  HS02004837HS02004842 CONDUIT     12.98     0  03:02      0.42    0.01    0.32
  HS02004830HS02004837 CONDUIT     43.71     0  03:01      0.57    0.04    0.11
  HS02004824HS02004830 CONDUIT     43.66     0  03:01      0.59    0.06    0.11
  HS02004817HS02004824 CONDUIT     85.68     0  03:01      0.26    0.04    0.48
  HS02004770HS02004777 CONDUIT    104.13     0  03:01      0.35    0.19    0.43
  HS02004799HS02004480 CONDUIT    258.30     0  03:01      0.83    0.33    0.44
  HS02004792HS02004799 CONDUIT    237.05     0  03:01      0.95    0.15    0.36
  HS02004788HS02004792 CONDUIT    135.43     0  03:01      1.06    0.09    0.18
  HS02004785HS02004788 CONDUIT    103.22     0  03:02      0.71    0.78    0.21
  HS02004777HS02004785 CONDUIT    103.37     0  03:01      0.42    0.13    0.35
  HS02004480HS02004478 CONDUIT    302.29     0  03:01      1.26    1.27    0.34
  HS02004479HS02004480 CONDUIT     46.29     0  03:02      0.32    0.04    0.43
  HS02004862HS02004870 CONDUIT     47.43     0  03:01      0.66    0.05    0.10
  HS02004848HS02004852 CONDUIT     21.94     0  03:01      0.45    0.02    0.07
  HS02004856HS02004862 CONDUIT     32.47     0  03:01      0.48    0.03    0.10
  HS02004852HS02004856 CONDUIT     21.85     0  03:02      0.25    0.02    0.13
  HS02004802HS02004478 CONDUIT    111.52     0  03:02      0.45    0.10    0.36
  HS02004478WS02006287 CONDUIT    413.22     0  03:01      1.75    0.12    0.26
  HS02004817HS02004807 CONDUIT     86.14     0  03:01      0.19    0.05    0.63
  HS02004807HS02004802 CONDUIT    111.37     0  03:01      0.38    0.21    0.42
  YS02001759YS02001757 CONDUIT    575.19     0  02:39      0.73    0.41    1.00
  YS02001762YS02001759 CONDUIT    291.97     0  02:39      0.37    0.34    1.00
  YS02001765YS02001762 CONDUIT    291.30     0  02:39      0.37    0.27    1.00
  YS02001770YS02001767 CONDUIT    290.75     0  02:39      0.37    1.15    1.00
  YS02001774YS02001770 CONDUIT    536.05     0  03:01      0.68    0.34    1.00
  YS02001779YS02001774 CONDUIT    536.26     0  03:01      0.68    0.27    1.00
  YS02001649YS02001757 CONDUIT    827.69     0  02:35      1.05    0.50    1.00
  YS02001767YS02001765 CONDUIT    290.78     0  02:39      0.37    0.37    1.00
  YS02006561YS02001783 CONDUIT   1022.85     0  02:47      2.15    0.53    1.00
  YS02001783YS02001784 CONDUIT   1022.59     0  02:47      2.03    1.41    1.00
  YS02001784YS02001785 CONDUIT   1023.70     0  02:47      2.04    2.38    1.00
  YS02001788YS02001790 CONDUIT   1023.88     0  02:47      2.44    0.75    1.00
  YS02001790YS02001791 CONDUIT   1024.29     0  02:47      2.91    1.11    1.00
  YS02001791YS02001793 CONDUIT   1023.88     0  02:47      5.75    0.44    1.00
  YS02001910YS02001907 CONDUIT    454.34     0  03:01      0.58    0.26    1.00
  YS02001786YS02001788 CONDUIT   1023.83     0  02:47      2.31    1.97    1.00
  YS02001915YS02001910 CONDUIT    454.84     0  03:01      0.59    0.23    1.00
  YS02001918YS02001915 CONDUIT    246.14     0  03:31      0.44    0.14    1.00
  YS02001923YS02001920 CONDUIT    191.45     0  03:29      0.71    0.09    1.00
  YS02001926YS02001923 CONDUIT    165.69     0  02:48      0.83    0.24    0.86
  YS02001929YS02001926 CONDUIT    154.81     0  03:01      0.89    0.07    0.75
  YS02001920YS02001918 CONDUIT    209.91     0  03:30      0.70    0.20    1.00
  YS02001629YS02163301 CONDUIT    211.39     0  02:25      0.27    0.26    1.00
  YS02001619YS02001622 CONDUIT    291.32     0  03:01      0.61    0.43    1.00
  YS02001622YS02001625 CONDUIT    290.49     0  03:00      0.37    0.16    1.00
  YS02001625YS02001629 CONDUIT    190.40     0  02:17      0.24    0.09    1.00
  YS02163301YS02001633 CONDUIT    214.42     0  02:25      0.27    0.20    1.00
  YS02163601YS02164001 CONDUIT    397.92     0  02:35      0.51    0.35    1.00
  YS02164001YS02001641 CONDUIT    397.07     0  02:35      0.51    0.54    1.00
  YS02001641YS02001644 CONDUIT    400.71     0  02:27      0.51    1.30    1.00
  YS02001647YS02001649 CONDUIT    608.58     0  03:01      0.77    0.32    1.00
  YS02006553YS02006556 CONDUIT    704.55     0  03:31      0.90    0.60    1.00
  YS02006556YS02006558 CONDUIT    704.86     0  03:31      0.90    0.56    1.00
  YSB6556YSB1171       CONDUIT     25.76     0  03:03      0.09    0.03    0.70
  YS02001907YS02006553 CONDUIT    704.65     0  03:31      0.78    0.83    1.00
  YS02006558YS02006561 CONDUIT   1022.82     0  02:47      3.62    2.26    1.00
  YS02001633YS02163601 CONDUIT    398.55     0  02:35      0.51    0.42    1.00
  YS02001644YS02001647 CONDUIT    609.09     0  03:01      0.78    0.36    1.00
  YS02001745YS02001748 CONDUIT    535.25     0  02:27      1.47    0.21    0.96
  YS02001748YS02001751 CONDUIT    343.11     0  03:01      1.06    0.17    1.00
  YS02001751YS02001754 CONDUIT    343.64     0  03:01      0.92    0.17    1.00
  YS02001754YS02001757 CONDUIT    342.54     0  03:01      0.44    0.14    1.00
  YS02001882YS02001884 CONDUIT     12.62     0  02:21      0.13    0.01    1.00
  YS02001884YS02001887 CONDUIT     23.17     0  02:21      0.09    0.03    1.00
  YS02001890YS02001895 CONDUIT    495.27     0  03:01      0.63    0.23    1.00
  YS02001895YS02001898 CONDUIT    495.51     0  03:01      0.63    0.86    1.00
  YS02001898YS02001901 CONDUIT    495.75     0  03:01      0.63    0.32    1.00
  YS02001901YS02001904 CONDUIT    496.34     0  03:01      0.63    0.77    1.00
  YS02001904YS02001907 CONDUIT    495.51     0  03:01      0.63    0.17    1.00
  YS02001887YS02001890 CONDUIT    495.42     0  03:01      0.63    0.85    1.00
  YS02001652YS02001649 CONDUIT    382.99     0  03:01      0.63    0.19    1.00
  YS02001655YS02001652 CONDUIT    381.56     0  03:01      0.98    0.19    1.00
  YS02001658YS02001655 CONDUIT    380.34     0  03:01      1.22    0.16    1.00
  YS02001661YS02001658 CONDUIT    595.78     0  02:23      1.55    0.23    1.00
  YS02001664YS02001661 CONDUIT    626.09     0  02:38      1.43    0.20    0.75
  YSB1154YSB6556       CONDUIT     25.82     0  03:01      0.17    0.05    0.59
  YSB1174YSB1171       CONDUIT     20.15     0  03:01      0.07    0.03    0.70
  YSB1171HS02004479    CONDUIT     44.91     0  03:02      0.54    0.03    0.55
  HS02004881HS02006253 CONDUIT     84.54     0  02:56      2.10    0.02    0.53
  YS02001793JiankangQianchi CONDUIT   1023.85     0  02:47     16.44    0.08    1.00
  YS02001757CaochengTiaoxuchi CONDUIT   1576.55     0  02:35      2.02    0.69    1.00
  WSF200WS02003060     CONDUIT    830.34     0  03:05      1.85    0.18    0.42
  1                    CONDUIT   1229.42     0  03:08      3.51    0.43    0.46
  CC-Pump-1            PUMP       200.00     0  03:00              1.00
  CC-Pump-2            PUMP       200.00     0  03:00              1.00
  JK-Pump-1            PUMP       300.00     0  00:00              1.00
  JK-Pump-2            PUMP       683.00     0  00:00              1.00
  XR-Pump-1            PUMP        95.00     0  00:00              1.00
  XR-Pump-2            PUMP        95.00     0  00:00              1.00
  XR-Pump-3            PUMP        95.00     0  00:00              1.00
  XR-Pump-4            PUMP        95.00     0  00:00              1.00
  
  
  ***************************
  Flow Classification Summary
  ***************************
  
  -------------------------------------------------------------------------------------
                      Adjusted    ---------- Fraction of Time in Flow Class ---------- 
                       /Actual         Up    Down  Sub   Sup   Up    Down  Norm  Inlet 
  Conduit               Length    Dry  Dry   Dry   Crit  Crit  Crit  Crit  Ltd   Ctrl  
  -------------------------------------------------------------------------------------
  WS02003066WSF200        1.00   0.01  0.05  0.00  0.00  0.94  0.00  0.00  0.45  0.00
  WS02006287WS02006284    1.00   0.03  0.01  0.00  0.66  0.31  0.00  0.00  0.62  0.00
  WS02006284WS02006280    1.00   0.03  0.00  0.00  0.00  0.00  0.00  0.97  0.00  0.00
  WS02006280WS02006229    1.00   0.03  0.00  0.00  0.00  0.02  0.00  0.95  0.03  0.00
  WS02006229WS02006228    1.00   0.00  0.00  0.00  1.00  0.00  0.00  0.00  0.00  0.00
  WS02006256WS02006235    1.00   0.00  0.00  0.00  1.00  0.00  0.00  0.00  0.00  0.00
  WS02006253WS02006251    1.00   0.01  0.01  0.00  0.97  0.00  0.01  0.00  0.00  0.00
  WS02006252WS02006251    1.00   0.17  0.00  0.00  0.10  0.00  0.73  0.00  0.00  0.00
  WS02006251WS02006249    1.00   0.00  0.00  0.00  1.00  0.00  0.00  0.00  0.22  0.00
  WS02006249WS02006248    1.00   0.00  0.01  0.00  0.92  0.00  0.07  0.00  0.00  0.00
  WS02006248WS02006247    1.00   0.01  0.00  0.00  0.98  0.00  0.00  0.01  0.12  0.00
  WS02006247WS02006245    1.00   0.01  0.00  0.00  0.97  0.00  0.00  0.02  0.00  0.00
  WS02006245WS02006243    1.00   0.00  0.00  0.00  0.96  0.00  0.00  0.04  0.01  0.00
  WS02006243WS02006242    1.00   0.00  0.00  0.00  1.00  0.00  0.00  0.00  0.23  0.00
  WS02006242WS02006240    1.00   0.00  0.00  0.00  1.00  0.00  0.00  0.00  0.00  0.00
  WS02006240WS02006239    1.00   0.00  0.00  0.00  0.95  0.00  0.00  0.04  0.01  0.00
  WS02006239WS02006238    1.00   0.00  0.00  0.00  1.00  0.00  0.00  0.00  0.14  0.00
  WS02006238WS02006235    1.00   0.00  0.00  0.00  1.00  0.00  0.00  0.00  0.00  0.00
  WS02006235WS02006234    1.00   0.00  0.00  0.00  0.96  0.00  0.04  0.00  0.00  0.00
  WS02006234WS02006232    1.00   0.00  0.00  0.00  1.00  0.00  0.00  0.00  0.10  0.00
  WS02006232WS02006231    1.00   0.00  0.00  0.00  1.00  0.00  0.00  0.00  0.00  0.00
  WS02006231WS02006230    1.00   0.00  0.00  0.00  0.94  0.00  0.06  0.00  0.00  0.00
  WS02006230WS02006229    1.00   0.00  0.00  0.00  1.00  0.00  0.00  0.00  0.01  0.00
  WS02006228WS02006109    1.00   0.00  0.00  0.00  1.00  0.00  0.00  0.00  0.00  0.00
  WS02006116WS02004401    1.00   0.01  0.00  0.00  0.99  0.00  0.00  0.00  0.01  0.00
  WS02006115WS02006116    1.00   0.01  0.00  0.00  0.97  0.00  0.00  0.02  0.01  0.00
  WS02006113WS02006111    1.00   0.01  0.00  0.00  0.02  0.98  0.00  0.00  0.14  0.00
  WS02006112WS02006115    1.00   0.01  0.00  0.00  0.99  0.00  0.00  0.00  0.00  0.00
  WS02006111WS02006112    1.00   0.01  0.00  0.00  0.99  0.00  0.00  0.00  0.90  0.00
  WS02006110WS02006113    1.00   0.00  0.00  0.00  0.99  0.00  0.00  0.00  0.00  0.00
  WS02006109WS02006110    1.00   0.00  0.00  0.00  1.00  0.00  0.00  0.00  0.00  0.00
  WS02004411WS02004412    1.00   0.05  0.00  0.00  0.95  0.00  0.00  0.00  0.00  0.00
  WS02004401WS02004402    1.00   0.01  0.00  0.00  0.99  0.00  0.00  0.00  0.01  0.00
  WS02004413WS02003067    1.00   0.05  0.01  0.00  0.00  0.00  0.94  0.00  0.00  0.00
  WS02004412WS02004413    1.00   0.05  0.00  0.00  0.95  0.00  0.00  0.00  0.00  0.00
  WS02004410WS02004411    1.00   0.05  0.00  0.00  0.95  0.00  0.00  0.00  0.00  0.00
  WS02004409WS02004410    1.00   0.05  0.00  0.00  0.95  0.00  0.00  0.00  0.00  0.00
  WS02004407WS02004409    1.00   0.05  0.00  0.00  0.95  0.01  0.00  0.00  0.81  0.00
  WS02004406WS02004407    1.00   0.00  0.05  0.00  0.95  0.00  0.00  0.00  0.00  0.00
  WS02004405WS02004406    1.00   0.00  0.00  0.00  1.00  0.00  0.00  0.00  0.02  0.00
  WS02004404WS02004405    1.00   0.00  0.00  0.00  1.00  0.00  0.00  0.00  0.00  0.00
  WS02004403WS02004404    1.00   0.00  0.01  0.00  0.99  0.00  0.00  0.00  0.02  0.00
  WS02004402WS02004403    1.00   0.01  0.00  0.00  0.99  0.00  0.00  0.00  0.00  0.00
  WS02004139WS02001211    1.00   0.00  0.00  0.00  1.00  0.00  0.00  0.00  0.00  0.00
  WS02004138WS02004139    1.00   0.00  0.00  0.00  1.00  0.00  0.00  0.00  1.00  0.00
  WS02003067WS02003066    1.00   0.06  0.00  0.00  0.94  0.00  0.00  0.00  0.00  0.00
  WS02001213WS02003059    1.00   0.00  0.00  0.00  1.00  0.00  0.00  0.00  0.00  0.00
  WS02001212WS02001213    1.00   0.00  0.00  0.00  0.92  0.00  0.08  0.00  0.00  0.00
  WS02001211WS02001212    1.00   0.00  0.00  0.00  1.00  0.00  0.00  0.00  0.00  0.00
  WS02003072WS02003073    1.00   0.00  0.00  0.00  0.00  0.00  0.00  1.00  0.00  0.00
  WS02003069WS02003072    1.00   0.00  0.00  0.00  1.00  0.00  0.00  0.00  0.12  0.00
  WS02003060WS02003069    1.00   0.00  0.00  0.00  0.99  0.01  0.00  0.00  0.09  0.00
  WS02003059WS02003060    1.00   0.00  0.00  0.00  1.00  0.00  0.00  0.00  0.00  0.00
  HS02004901HS02004770    1.00   0.03  0.00  0.00  0.97  0.00  0.00  0.00  0.00  0.00
  HS02004876HS02004881    1.00   0.01  0.00  0.00  0.93  0.06  0.00  0.00  0.00  0.00
  HS02004870HS02004876    1.00   0.00  0.00  0.00  1.00  0.00  0.00  0.00  0.95  0.00
  HS02004842HS02004848    1.00   0.00  0.03  0.00  0.97  0.00  0.00  0.00  0.55  0.00
  HS02004837HS02004842    1.00   0.00  0.00  0.00  1.00  0.00  0.00  0.00  0.11  0.00
  HS02004830HS02004837    1.00   0.00  0.00  0.00  1.00  0.00  0.00  0.00  0.99  0.00
  HS02004824HS02004830    1.00   0.00  0.00  0.00  1.00  0.00  0.00  0.00  0.00  0.00
  HS02004817HS02004824    1.00   0.00  0.00  0.00  1.00  0.00  0.00  0.00  1.00  0.00
  HS02004770HS02004777    1.00   0.00  0.03  0.00  0.97  0.00  0.00  0.00  0.02  0.00
  HS02004799HS02004480    1.00   0.00  0.01  0.00  0.96  0.00  0.03  0.00  0.00  0.00
  HS02004792HS02004799    1.00   0.00  0.00  0.00  1.00  0.00  0.00  0.00  0.98  0.00
  HS02004788HS02004792    1.00   0.00  0.00  0.00  1.00  0.00  0.00  0.00  0.98  0.00
  HS02004785HS02004788    1.00   0.00  0.00  0.00  1.00  0.00  0.00  0.00  0.00  0.00
  HS02004777HS02004785    1.00   0.00  0.00  0.00  1.00  0.00  0.00  0.00  0.12  0.00
  HS02004480HS02004478    1.00   0.03  0.00  0.00  0.72  0.00  0.00  0.24  0.00  0.00
  HS02004479HS02004480    1.00   0.01  0.00  0.00  0.99  0.00  0.00  0.00  0.11  0.00
  HS02004862HS02004870    1.00   0.00  0.00  0.00  1.00  0.00  0.00  0.00  0.03  0.00
  HS02004848HS02004852    1.00   0.03  0.00  0.00  0.97  0.00  0.00  0.00  0.62  0.00
  HS02004856HS02004862    1.00   0.00  0.04  0.00  0.96  0.00  0.00  0.00  0.83  0.00
  HS02004852HS02004856    1.00   0.03  0.00  0.00  0.97  0.00  0.00  0.00  0.85  0.00
  HS02004802HS02004478    1.00   0.03  0.00  0.00  0.97  0.00  0.00  0.00  0.02  0.00
  HS02004478WS02006287    1.00   0.04  0.00  0.00  0.79  0.17  0.00  0.00  0.64  0.00
  HS02004817HS02004807    1.00   0.00  0.03  0.00  0.97  0.00  0.00  0.00  0.01  0.00
  HS02004807HS02004802    1.00   0.03  0.00  0.00  0.97  0.00  0.00  0.00  0.00  0.00
  YS02001759YS02001757    1.00   0.00  0.00  0.00  1.00  0.00  0.00  0.00  0.16  0.00
  YS02001762YS02001759    1.00   0.00  0.00  0.00  1.00  0.00  0.00  0.00  0.03  0.00
  YS02001765YS02001762    1.00   0.00  0.00  0.00  1.00  0.00  0.00  0.00  0.13  0.00
  YS02001770YS02001767    1.00   0.00  0.00  0.00  1.00  0.00  0.00  0.00  0.00  0.00
  YS02001774YS02001770    1.00   0.00  0.03  0.00  0.97  0.00  0.00  0.00  0.02  0.00
  YS02001779YS02001774    1.00   0.00  0.00  0.00  1.00  0.00  0.00  0.00  0.18  0.00
  YS02001649YS02001757    1.00   0.00  0.00  0.00  1.00  0.00  0.00  0.00  0.16  0.00
  YS02001767YS02001765    1.00   0.00  0.00  0.00  1.00  0.00  0.00  0.00  0.00  0.00
  YS02006561YS02001783    1.00   0.04  0.00  0.00  0.31  0.65  0.00  0.00  0.47  0.00
  YS02001783YS02001784    1.00   0.00  0.04  0.00  0.96  0.00  0.00  0.00  0.00  0.00
  YS02001784YS02001785    1.00   0.00  0.00  0.00  1.00  0.00  0.00  0.00  0.17  0.00
  YS02001788YS02001790    1.00   0.00  0.00  0.00  0.35  0.65  0.00  0.00  0.41  0.00
  YS02001790YS02001791    1.00   0.00  0.00  0.00  0.32  0.68  0.00  0.00  0.50  0.00
  YS02001791YS02001793    1.00   0.00  0.00  0.00  0.35  0.65  0.00  0.00  0.02  0.00
  YS02001910YS02001907    1.00   0.00  0.00  0.00  0.99  0.00  0.00  0.01  0.12  0.00
  YS02001786YS02001788    1.00   0.00  0.00  0.00  0.33  0.67  0.00  0.00  0.00  0.00
  YS02001915YS02001910    1.00   0.00  0.00  0.00  0.99  0.01  0.00  0.00  0.15  0.00
  YS02001918YS02001915    1.00   0.00  0.00  0.00  0.99  0.00  0.00  0.00  0.55  0.00
  YS02001923YS02001920    1.00   0.00  0.00  0.00  1.00  0.00  0.00  0.00  0.84  0.00
  YS02001926YS02001923    1.00   0.00  0.02  0.00  0.12  0.00  0.86  0.00  0.00  0.00
  YS02001929YS02001926    1.00   0.00  0.03  0.00  0.97  0.00  0.00  0.00  0.76  0.00
  YS02001920YS02001918    1.00   0.00  0.00  0.00  1.00  0.00  0.00  0.00  0.00  0.00
  YS02001629YS02163301    1.00   0.04  0.00  0.00  0.96  0.00  0.00  0.00  0.00  0.00
  YS02001619YS02001622    1.00   0.03  0.00  0.00  0.97  0.00  0.00  0.00  0.00  0.00
  YS02001622YS02001625    1.00   0.03  0.00  0.00  0.97  0.00  0.00  0.00  0.04  0.00
  YS02001625YS02001629    1.00   0.03  0.01  0.00  0.94  0.00  0.02  0.00  0.00  0.00
  YS02163301YS02001633    1.00   0.00  0.04  0.00  0.96  0.00  0.00  0.00  0.00  0.00
  YS02163601YS02164001    1.00   0.00  0.02  0.00  0.98  0.00  0.00  0.00  0.00  0.00
  YS02164001YS02001641    1.00   0.00  0.02  0.00  0.98  0.00  0.00  0.00  0.06  0.00
  YS02001641YS02001644    1.00   0.00  0.00  0.00  1.00  0.00  0.00  0.00  0.00  0.00
  YS02001647YS02001649    1.00   0.00  0.04  0.00  0.96  0.00  0.00  0.00  0.01  0.00
  YS02006553YS02006556    1.00   0.00  0.00  0.00  1.00  0.00  0.00  0.00  0.03  0.00
  YS02006556YS02006558    1.00   0.00  0.00  0.00  1.00  0.00  0.00  0.00  0.00  0.00
  YSB6556YSB1171          1.00   0.01  0.02  0.00  0.97  0.00  0.00  0.00  0.00  0.00
  YS02001907YS02006553    1.00   0.00  0.01  0.00  0.99  0.00  0.00  0.00  0.00  0.00
  YS02006558YS02006561    1.00   0.04  0.00  0.00  0.13  0.83  0.00  0.00  0.48  0.00
  YS02001633YS02163601    1.00   0.00  0.00  0.00  1.00  0.00  0.00  0.00  0.15  0.00
  YS02001644YS02001647    1.00   0.00  0.04  0.00  0.96  0.00  0.00  0.00  0.00  0.00
  YS02001745YS02001748    1.00   0.00  0.00  0.00  0.92  0.01  0.00  0.07  0.04  0.00
  YS02001748YS02001751    1.00   0.00  0.00  0.00  0.97  0.03  0.00  0.00  0.15  0.00
  YS02001751YS02001754    1.00   0.00  0.00  0.00  0.95  0.00  0.00  0.05  0.02  0.00
  YS02001754YS02001757    1.00   0.00  0.00  0.00  1.00  0.00  0.00  0.00  0.18  0.00
  YS02001882YS02001884    1.00   0.04  0.00  0.00  0.96  0.00  0.00  0.00  0.00  0.00
  YS02001884YS02001887    1.00   0.02  0.01  0.00  0.97  0.00  0.00  0.00  0.00  0.00
  YS02001890YS02001895    1.00   0.00  0.04  0.00  0.96  0.00  0.00  0.00  0.00  0.00
  YS02001895YS02001898    1.00   0.04  0.00  0.00  0.95  0.00  0.01  0.00  0.00  0.00
  YS02001898YS02001901    1.00   0.04  0.00  0.00  0.96  0.00  0.00  0.00  0.01  0.00
  YS02001901YS02001904    1.00   0.04  0.00  0.00  0.96  0.00  0.00  0.00  0.00  0.00
  YS02001904YS02001907    1.00   0.00  0.04  0.00  0.96  0.00  0.00  0.00  0.00  0.00
  YS02001887YS02001890    1.00   0.00  0.00  0.00  0.99  0.00  0.01  0.00  0.00  0.00
  YS02001652YS02001649    1.00   0.00  0.00  0.00  1.00  0.00  0.00  0.00  0.16  0.00
  YS02001655YS02001652    1.00   0.00  0.00  0.00  0.95  0.00  0.00  0.05  0.02  0.00
  YS02001658YS02001655    1.00   0.00  0.03  0.00  0.94  0.03  0.00  0.00  0.08  0.00
  YS02001661YS02001658    1.00   0.03  0.00  0.00  0.92  0.05  0.00  0.00  0.08  0.00
  YS02001664YS02001661    1.00   0.03  0.00  0.00  0.93  0.04  0.00  0.00  0.19  0.00
  YSB1154YSB6556          1.00   0.03  0.00  0.00  0.97  0.00  0.00  0.00  0.01  0.00
  YSB1174YSB1171          1.00   0.01  0.01  0.00  0.98  0.00  0.00  0.00  0.00  0.00
  YSB1171HS02004479       1.00   0.01  0.00  0.00  0.99  0.00  0.00  0.00  0.10  0.00
  HS02004881HS02006253    1.00   0.01  0.00  0.00  0.80  0.02  0.00  0.16  0.62  0.00
  YS02001793JiankangQianchi    1.00   0.00  0.00  0.00  0.58  0.42  0.00  0.00  0.39  0.00
  YS02001757CaochengTiaoxuchi    1.00   0.00  0.06  0.00  0.94  0.00  0.00  0.00  0.00  0.00
  WSF200WS02003060        1.00   0.00  0.01  0.00  0.99  0.00  0.00  0.00  0.22  0.00
  1                       1.00   0.00  0.00  0.00  0.00  1.00  0.00  0.00  0.54  0.00
  
  
  *************************
  Conduit Surcharge Summary
  *************************
  
  ----------------------------------------------------------------------------
                                                           Hours        Hours 
                         --------- Hours Full --------   Above Full   Capacity
  Conduit                Both Ends  Upstream  Dnstream   Normal Flow   Limited
  ----------------------------------------------------------------------------
  WS02006229WS02006228        5.06      5.16      5.06      5.78         5.06
  WS02006256WS02006235        5.95      5.96      6.71      4.35         0.01
  WS02006253WS02006251        2.44      2.44      2.55      0.01         0.01
  WS02006252WS02006251        1.89      1.89      2.89      2.54         0.01
  WS02006251WS02006249        2.46      2.47      2.57      1.67         1.49
  WS02006249WS02006248        2.46      2.46      2.57      4.50         0.01
  WS02006248WS02006247        2.54      2.54      2.82      0.01         0.01
  WS02006247WS02006245        2.78      2.88      2.78      4.66         2.74
  WS02006245WS02006243        2.82      2.84      2.96      0.98         0.94
  WS02006243WS02006242        3.07      3.07      4.31      0.01         0.01
  WS02006242WS02006240        4.10      4.10      4.47      2.70         0.01
  WS02006240WS02006239        4.13      4.17      4.25      1.73         1.25
  WS02006239WS02006238        4.52      4.57      4.59      1.84         1.41
  WS02006238WS02006235        4.54      4.54      4.71      0.01         0.01
  WS02006235WS02006234        3.86      3.86      4.50      5.85         0.01
  WS02006234WS02006232        4.40      4.40      4.83      0.85         0.82
  WS02006232WS02006231        2.02      2.02      4.83      1.06         0.01
  WS02006231WS02006230        1.38      1.38      2.16      5.98         0.01
  WS02006230WS02006229        5.60      5.75      5.60      6.07         5.60
  WS02006228WS02006109        5.10      5.37      5.10      5.92         5.10
  WS02006116WS02004401        0.33      0.33      0.34      0.28         0.28
  WS02006115WS02006116        0.22      0.22      0.23      0.18         0.18
[...]
  YS02001765YS02001762        5.84      5.84      5.87      0.01         0.01
  YS02001770YS02001767        5.81      5.81      5.81      0.20         0.81
  YS02001774YS02001770        5.80      5.80      5.86      0.01         0.01
  YS02001779YS02001774        5.67      5.67      5.86      0.01         0.01
  YS02001649YS02001757        5.88      5.88      5.98      0.01         0.01
  YS02001767YS02001765        5.81      5.81      5.84      0.01         0.01
  YS02006561YS02001783        0.73      0.73      1.29      0.01         0.01
  YS02001783YS02001784        1.27      1.29      1.27      1.30         1.12
  YS02001784YS02001785        1.22      1.27      1.22      2.40         1.21
  YS02001788YS02001790        1.16      1.16      1.78      0.01         0.01
  YS02001790YS02001791        1.78      1.78      1.87      0.92         0.90
  YS02001791YS02001793        1.87      1.87      2.22      0.01         0.01
  YS02001910YS02001907        1.12      1.12      1.81      0.01         0.01
  YS02001786YS02001788        1.16      1.22      1.16      1.96         1.16
  YS02001915YS02001910        0.92      0.92      1.12      0.01         0.01
  YS02001918YS02001915        0.69      0.69      0.92      0.01         0.01
  YS02001923YS02001920        0.53      0.53      0.73      0.01         0.01
  YS02001920YS02001918        0.69      0.69      0.73      0.01         0.01
  YS02001629YS02163301        5.80      5.80      5.81      0.01         0.01
  YS02001619YS02001622        5.47      5.47      5.51      0.01         0.01
  YS02001622YS02001625        5.51      5.51      5.76      0.01         0.01
  YS02001625YS02001629        5.48      5.48      5.76      0.01         0.01
  YS02163301YS02001633        5.81      5.81      5.84      0.01         0.01
  YS02163601YS02164001        5.83      5.83      5.87      0.01         0.01
  YS02164001YS02001641        5.83      5.83      5.85      0.01         0.03
  YS02001641YS02001644        5.85      5.85      5.85      1.53         1.59
  YS02001647YS02001649        5.75      5.75      5.88      0.01         0.01
  YS02006553YS02006556        1.35      1.35      1.88      0.01         0.01
  YS02006556YS02006558        1.52      1.52      1.93      0.01         0.01
  YS02001907YS02006553        2.41      2.41      2.63      0.01         0.01
  YS02006558YS02006561        0.94      1.32      0.94      2.24         0.94
  YS02001633YS02163601        5.83      5.83      5.87      0.01         0.01
  YS02001644YS02001647        5.75      5.75      5.85      0.01         0.01
  YS02001745YS02001748        0.01      0.01      5.30      0.01         0.01
  YS02001748YS02001751        5.35      5.35      5.49      0.01         0.01
  YS02001751YS02001754        5.49      5.49      5.69      0.01         0.01
  YS02001754YS02001757        5.74      5.74      5.98      0.01         0.01
  YS02001882YS02001884        0.94      0.94      0.96      0.01         0.01
  YS02001884YS02001887        1.01      1.01      1.04      0.01         0.01
  YS02001890YS02001895        0.91      0.91      1.13      0.01         0.01
  YS02001895YS02001898        0.90      0.90      0.91      0.01         0.01
  YS02001898YS02001901        0.92      0.92      1.01      0.01         0.01
  YS02001901YS02001904        0.98      0.98      1.01      0.01         0.01
  YS02001904YS02001907        0.98      0.98      1.90      0.01         0.01
  YS02001887YS02001890        1.07      1.07      1.10      0.01         0.01
  YS02001652YS02001649        5.76      5.76      5.88      0.01         0.01
  YS02001655YS02001652        5.50      5.50      5.73      0.01         0.01
  YS02001658YS02001655        5.33      5.33      5.50      0.01         0.01
  YS02001661YS02001658        0.20      0.20      5.33      0.01         0.01
  YS02001664YS02001661        0.01      0.01      1.00      0.01         0.01
  HS02004881HS02006253        0.01      0.01      1.02      0.01         0.01
  YS02001793JiankangQianchi        2.14      2.14      3.83      0.01         0.01
  YS02001757CaochengTiaoxuchi        5.21      5.21      5.98      0.01         0.01
  
  
  ***************
  Pumping Summary
  ***************
  
  ---------------------------------------------------------------------------------------------------------
                                                  Min       Avg       Max     Total     Power    % Time Off
                        Percent   Number of      Flow      Flow      Flow    Volume     Usage    Pump Curve
  Pump                 Utilized   Start-Ups       LPS       LPS       LPS  10^6 ltr     Kw-hr    Low   High
  ---------------------------------------------------------------------------------------------------------
  CC-Pump-1               61.71           1      0.00    187.83    200.00     3.240      3.55    0.0    0.0
  CC-Pump-2               46.81           4      0.00    104.86    200.00     1.680      2.24    0.0    0.0
  JK-Pump-1               61.70           5      0.00    218.27    300.00     3.720     55.43    0.0    0.0
  JK-Pump-2               57.45           5      0.00    373.94    683.00     6.369     91.14    0.0   96.8
  XR-Pump-1              100.00           1      0.00     95.00     95.00     2.679     27.97    0.0    0.0
  XR-Pump-2              100.00           1      0.00     94.55     95.00     2.622     26.71    0.0    0.0
  XR-Pump-3               91.49           3      0.00     93.46     95.00     2.337     20.51    0.0    0.0
  XR-Pump-4               91.49           3      0.00     93.46     95.00     2.337     20.51    0.0    0.0
  
  
  ***************************
  Link Pollutant Load Summary
  ***************************
  
  ------------------------------------------------------------------------------------------
                                 COD            SS            TN            TP         NH4-N
  Link                            kg            kg            kg            kg            kg
  ------------------------------------------------------------------------------------------
  WS02003066WSF200           870.833      1598.778        22.740         1.968        11.946
  WS02006287WS02006284       268.066       498.227         9.346         0.943         5.214
  WS02006284WS02006280       268.552       499.010         9.393         0.949         5.243
  WS02006280WS02006229       268.516       498.943         9.391         0.948         5.242
  WS02006229WS02006228       873.903      1604.163        22.330         1.902        11.661
  WS02006256WS02006235       193.922       355.890         4.270         0.332         2.159
  WS02006253WS02006251        51.677        99.226         1.225         0.096         0.619
  WS02006252WS02006251       400.446       724.416         8.336         0.592         4.085
  WS02006251WS02006249       445.589       812.031         9.422         0.678         4.637
  WS02006249WS02006248       415.861       757.139         8.801         0.633         4.332
  WS02006248WS02006247       415.986       757.395         8.805         0.634         4.334
  WS02006247WS02006245       415.918       757.266         8.802         0.633         4.332
  WS02006245WS02006243       415.832       757.202         8.794         0.632         4.327
  WS02006243WS02006242       415.870       757.278         8.795         0.632         4.328
  WS02006242WS02006240       415.905       757.346         8.796         0.632         4.328
  WS02006240WS02006239       416.328       758.059         8.811         0.634         4.337
  WS02006239WS02006238       417.385       759.782         8.857         0.639         4.363
  WS02006238WS02006235       418.010       760.699         8.885         0.642         4.380
  WS02006235WS02006234       608.322      1110.350        13.032         0.962         6.470
  WS02006234WS02006232       608.025      1109.819        13.027         0.962         6.468
  WS02006232WS02006231       607.570      1109.023        13.015         0.961         6.461
  WS02006231WS02006230       607.470      1108.827        13.013         0.961         6.461
  WS02006230WS02006229       606.357      1106.905        12.979         0.958         6.443
  WS02006228WS02006109       872.897      1602.443        22.290         1.898        11.638
  WS02006116WS02004401       884.053      1622.047        23.055         1.992        12.106
  WS02006115WS02006116       885.372      1624.345        23.092         1.995        12.126
  WS02006113WS02006111       878.926      1611.797        23.012         1.990        12.096
  WS02006112WS02006115       886.599      1626.490        23.134         1.999        12.149
  WS02006111WS02006112       878.409      1610.870        22.999         1.989        12.089
  WS02006110WS02006113       879.354      1612.533        23.029         1.992        12.105
  WS02006109WS02006110       880.372      1614.293        23.071         1.996        12.129
  WS02004411WS02004412       874.340      1604.921        22.859         1.979        12.012
  WS02004401WS02004402       882.698      1619.681        23.012         1.988        12.083
  WS02004413WS02003067       871.542      1600.027        22.758         1.969        11.956
  WS02004412WS02004413       873.100      1602.744        22.824         1.976        11.994
  WS02004410WS02004411       875.367      1606.718        22.886         1.981        12.027
  WS02004409WS02004410       876.408      1608.544        22.917         1.984        12.043
  WS02004407WS02004409       877.276      1610.057        22.938         1.986        12.054
  WS02004406WS02004407       877.539      1610.506        22.941         1.986        12.054
  WS02004405WS02004406       879.323      1613.582        23.016         1.994        12.098
  WS02004404WS02004405       880.566      1615.798        23.021         1.992        12.097
  WS02004403WS02004404       880.238      1615.387        22.938         1.981        12.042
  WS02004402WS02004403       881.409      1617.435        22.975         1.985        12.063
  WS02004139WS02001211      1405.091      2314.815       116.860        14.311        72.167
  WS02004138WS02004139      1411.534      2325.460       117.379        14.374        72.486
  WS02003067WS02003066       871.049      1599.161        22.747         1.968        11.950
  WS02001213WS02003059      1437.857      2366.517       120.221        14.734        74.277
  WS02001212WS02001213      1447.248      2381.932       121.008        14.831        74.764
  WS02001211WS02001212      1449.253      2385.194       121.183        14.853        74.873
  WS02003072WS02003073      2408.537      4124.094       152.880        17.947        92.438
  WS02003069WS02003072      2413.501      4132.239       153.285        17.997        92.687
  WS02003060WS02003069      2416.294      4136.975       153.458        18.017        92.791
  WS02003059WS02003060      1434.830      2361.458       119.994        14.707        74.139
  HS02004901HS02004770        10.271        19.478         0.196         0.015         0.091
  HS02004876HS02004881        37.319        72.582         0.843         0.062         0.416
  HS02004870HS02004876        28.161        54.630         0.678         0.051         0.338
  HS02004842HS02004848         5.467        10.276         0.115         0.008         0.053
  HS02004837HS02004842        10.072        17.581         0.584         0.067         0.347
  HS02004830HS02004837        65.639       112.704         4.557         0.546         2.785
  HS02004824HS02004830        66.390       113.909         4.628         0.555         2.830
  HS02004817HS02004824        88.208       156.979         5.083         0.584         3.051
  HS02004770HS02004777        39.297        75.469         0.819         0.055         0.377
  HS02004799HS02004480       131.416       245.384         3.680         0.335         1.933
  HS02004792HS02004799       119.091       220.673         3.497         0.327         1.853
  HS02004788HS02004792        68.399       126.863         2.388         0.235         1.309
  HS02004785HS02004788        40.735        77.765         0.969         0.074         0.471
  HS02004777HS02004785        40.062        76.671         0.909         0.067         0.434
  HS02004480HS02004478       165.957       312.607         4.243         0.374         2.195
  HS02004479HS02004480        38.144        72.973         0.884         0.079         0.462
  HS02004862HS02004870        21.016        40.118         0.536         0.043         0.270
  HS02004848HS02004852         8.058        15.280         0.167         0.011         0.077
  HS02004856HS02004862        14.072        27.341         0.284         0.019         0.133
  HS02004852HS02004856         8.064        15.291         0.167         0.011         0.077
  HS02004802HS02004478       102.888       186.892         5.162         0.576         3.055
  HS02004478WS02006287       268.262       498.557         9.363         0.945         5.224
  HS02004817HS02004807        86.889       154.863         4.957         0.568         2.972
  HS02004807HS02004802       103.115       187.246         5.194         0.580         3.075
  YS02001759YS02001757       345.725       628.586         6.943         0.479         3.392
  YS02001762YS02001759       159.838       290.231         3.438         0.240         1.703
  YS02001765YS02001762       160.080       291.143         3.463         0.243         1.718
  YS02001770YS02001767       159.915       292.324         3.267         0.214         1.586
  YS02001774YS02001770       168.320       324.396         3.259         0.215         1.575
  YS02001779YS02001774       167.097       321.869         3.341         0.229         1.635
  YS02001649YS02001757       294.283       521.772         5.916         0.413         2.832
  YS02001767YS02001765       160.865       293.008         3.494         0.245         1.735
  YS02006561YS02001783       939.844      1723.989        19.891         1.492         9.924
  YS02001783YS02001784       939.709      1723.770        19.886         1.491         9.922
  YS02001784YS02001785       946.981      1735.399        20.598         1.580        10.367
  YS02001788YS02001790       947.517      1736.251        20.669         1.590        10.412
  YS02001790YS02001791       948.534      1737.879        20.770         1.602        10.475
  YS02001791YS02001793       948.405      1737.662        20.764         1.602        10.472
  YS02001910YS02001907       329.968       598.946         8.214         0.640         4.242
  YS02001786YS02001788       947.136      1735.639        20.625         1.584        10.385
  YS02001915YS02001910       330.067       599.101         8.171         0.634         4.213
  YS02001918YS02001915       157.233       272.897         4.587         0.427         2.499
  YS02001923YS02001920       136.666       239.809         2.623         0.182         1.272
  YS02001926YS02001923       136.392       239.395         2.586         0.178         1.248
  YS02001929YS02001926       136.170       239.027         2.555         0.174         1.228
  YS02001920YS02001918       156.532       271.580         4.542         0.422         2.471
  YS02001629YS02163301       103.558       183.500         2.172         0.140         1.012
  YS02001619YS02001622       146.394       262.930         3.031         0.197         1.414
  YS02001622YS02001625       145.252       261.130         3.003         0.195         1.401
  YS02001625YS02001629       104.654       185.312         2.196         0.142         1.023
  YS02163301YS02001633       103.282       183.035         2.165         0.140         1.010
  YS02163601YS02164001       362.066       646.257         7.116         0.502         3.404
  YS02164001YS02001641       361.552       645.392         7.096         0.500         3.392
  YS02001641YS02001644       361.782       645.706         7.095         0.500         3.391
  YS02001647YS02001649       343.460       618.071         6.795         0.474         3.237
  YS02006553YS02006556       661.402      1207.726        14.294         1.098         7.206
  YS02006556YS02006558       661.311      1207.542        14.261         1.094         7.184
  YSB6556YSB1171              21.951        42.196         0.451         0.038         0.229
  YS02001907YS02006553       661.510      1207.951        14.307         1.100         7.215
  YS02006558YS02006561       939.817      1723.936        19.890         1.491         9.923
  YS02001633YS02163601       362.755       647.321         7.096         0.498         3.387
  YS02001644YS02001647       350.528       630.670         6.920         0.483         3.297
  YS02001745YS02001748       208.844       384.507         4.608         0.315         2.286
  YS02001748YS02001751       207.600       382.010         4.697         0.330         2.349
  YS02001751YS02001754       206.619       380.402         4.678         0.329         2.341
  YS02001754YS02001757       207.363       381.516         4.841         0.351         2.447
  YS02001882YS02001884         2.912         5.025         0.058         0.005         0.029
  YS02001884YS02001887         6.770        11.965         0.132         0.010         0.066
  YS02001890YS02001895       389.376       720.488         7.188         0.539         3.507
  YS02001895YS02001898       389.196       720.236         7.181         0.539         3.504
  YS02001898YS02001901       388.969       719.851         7.176         0.538         3.501
  YS02001901YS02001904       388.813       719.626         7.183         0.539         3.506
  YS02001904YS02001907       389.034       719.965         7.236         0.547         3.541
  YS02001887YS02001890       390.200       721.731         7.242         0.546         3.541
  YS02001652YS02001649       153.843       281.329         3.139         0.226         1.471
  YS02001655YS02001652       154.654       282.615         3.160         0.227         1.482
  YS02001658YS02001655       154.422       282.232         3.080         0.216         1.428
  YS02001661YS02001658       158.301       289.122         3.160         0.222         1.465
  YS02001664YS02001661       176.750       320.130         3.564         0.249         1.650
  YSB1154YSB6556              21.533        41.529         0.402         0.032         0.198
  YSB1174YSB1171              14.654        28.290         0.298         0.024         0.149
  YSB1171HS02004479           38.102        72.906         0.887         0.079         0.465
  HS02004881HS02006253        42.294        82.616         0.923         0.067         0.453
  YS02001793JiankangQianchi       949.155      1738.885        20.801         1.606        10.493
  YS02001757CaochengTiaoxuchi       647.897      1157.549        13.667         0.966         6.697
  WSF200WS02003060           870.699      1598.525        22.747         1.969        11.951
  1                         2414.004      4132.348       153.580        18.038        92.883
  CC-Pump-1                  262.563       474.745         5.467         0.388         2.679
  CC-Pump-2                  137.866       249.642         2.868         0.204         1.406
  JK-Pump-1                  250.635       463.900         5.313         0.403         2.659
  JK-Pump-2                  492.951       917.951        10.376         0.787         5.187
  XR-Pump-1                  394.031       647.239        33.273         4.084        20.575
  XR-Pump-2                  380.377       625.393        31.962         3.920        19.756
  XR-Pump-3                  320.460       529.521        26.232         3.205        16.177
  XR-Pump-4                  320.460       529.521        26.232         3.205        16.177
  

  Analysis begun on:  Tue Jul 13 18:00:05 2021
  Analysis ended on:  Tue Jul 13 18:00:09 2021
  Total elapsed time: 00:00:04