
  EPA STORM WATER MANAGEMENT MODEL - VERSION 5.1 (Build 5.3.0.dev0)
  --------------------------------------------------------------

  WARNING 04: minimum elevation drop used for Conduit WS02004404WS02004405
  WARNING 03: negative offset ignored for Link YS02001904YS02001907
  
  *********************************************************
  NOTE: The summary statistics displayed in this report are
  based on results found at every computational time step,  
  not just on results from each reporting time step.
  *********************************************************
  
  ****************
  Analysis Options
  ****************
  Flow Units ............... LPS
  Process Models:
    Rainfall/Runoff ........ YES
    RDII ................... NO
    Snowmelt ............... NO
    Groundwater ............ NO
    Flow Routing ........... YES
    Ponding Allowed ........ NO
    Water Quality .......... YES
  Infiltration Method ...... HORTON
  Flow Routing Method ...... DYNWAVE
  Surcharge Method ......... EXTRAN
  Starting Date ............ 08/28/2015 08:00:00
  Ending Date .............. 08/28/2015 15:50:00
  Antecedent Dry Days ...... 8.0
  Report Time Step ......... 00:01:00
  Wet Time Step ............ 00:01:00
  Dry Time Step ............ 00:01:00
  Routing Time Step ........ 5.00 sec
  Variable Time Step ....... YES
  Maximum Trials ........... 8
  Number of Threads ........ 4
  Head Tolerance ........... 0.001500 m
  
  
  **************************        Volume         Depth
  Runoff Quantity Continuity     hectare-m            mm
  **************************     ---------       -------
  Total Precipitation ......         5.556        12.164
  Evaporation Loss .........         0.000         0.000
  Infiltration Loss ........         1.002         2.194
  Surface Runoff ...........         3.688         8.075
  Final Storage ............         0.866         1.897
  Continuity Error (%) .....        -0.019
  
  
  **************************           COD            SS            TN            TP         NH4-N
  Runoff Quality Continuity             kg            kg            kg            kg            kg
  **************************    ----------    ----------    ----------    ----------    ----------
  Initial Buildup ..........     41378.656     70582.865      1804.177       168.684      1032.807
  Surface Buildup ..........        19.275        34.271         2.335         0.213         1.362
  Wet Deposition ...........         0.000         0.000         0.000         0.000         0.000
  Sweeping Removal .........         0.000         0.000         0.000         0.000         0.000
  Infiltration Loss ........        84.023       157.502         1.599         0.111         0.761
  BMP Removal ..............         0.000         0.000         0.000         0.000         0.000
  Surface Runoff ...........      3122.074      5752.154        60.620         4.098        28.771
  Remaining Buildup ........     38190.779     64705.500      1744.271       164.686      1004.628
  Continuity Error (%) .....         0.003         0.003         0.001         0.001         0.001
  
  
  **************************        Volume        Volume
  Flow Routing Continuity        hectare-m      10^6 ltr
  **************************     ---------     ---------
  Dry Weather Inflow .......         0.616         6.165
  Wet Weather Inflow .......         3.687        36.870
  Groundwater Inflow .......         0.000         0.000
  RDII Inflow ..............         0.000         0.000
  External Inflow ..........         0.102         1.024
  External Outflow .........         2.005        20.054
  Flooding Loss ............         1.970        19.700
  Evaporation Loss .........         0.000         0.000
  Exfiltration Loss ........         0.000         0.000
  Initial Stored Volume ....         0.076         0.761
  Final Stored Volume ......         0.634         6.340
  Continuity Error (%) .....        -2.846
  
  
  **************************           COD            SS            TN            TP         NH4-N
  Quality Routing Continuity            kg            kg            kg            kg            kg
  **************************    ----------    ----------    ----------    ----------    ----------
  Dry Weather Inflow .......      1541.201      2465.922       147.955        18.494        92.472
  Wet Weather Inflow .......      3121.257      5750.767        60.603         4.097        28.763
  Groundwater Inflow .......         0.000         0.000         0.000         0.000         0.000
  RDII Inflow ..............         0.000         0.000         0.000         0.000         0.000
  External Inflow ..........       183.418       293.469        17.608         2.201        11.005
  External Outflow .........      2342.193      4005.716       150.901        17.768        91.370
  Flooding Loss ............      1808.593      3314.903        48.086         4.258        25.460
  Exfiltration Loss ........         0.000         0.000         0.000         0.000         0.000
  Mass Reacted .............         0.000         0.000         0.000         0.000         0.000
  Initial Stored Mass ......         0.000         0.000         0.000         0.000         0.000
  Final Stored Mass ........       518.891       884.291        23.067         2.453        13.346
  Continuity Error (%) .....         3.636         3.587         1.819         1.269         1.560
  
  
  *************************
  Highest Continuity Errors
  *************************
  Node HS02004842 (14.53%)
  Node JK-storage (-12.73%)
  Node YS02001884 (11.51%)
  Node YSB1171 (2.74%)
  Node HS02004817 (2.73%)
  
  
  ***************************
  Time-Step Critical Elements
  ***************************
  Link WS02006252WS02006251 (73.70%)
  Link WS02006280WS02006229 (9.64%)
  Link WS02006238WS02006235 (3.55%)
  Link WS02004404WS02004405 (2.72%)
  Link YS02001793JiankangQianchi (1.48%)
  
  
  ********************************
  Highest Flow Instability Indexes
  ********************************
  Link WS02006113WS02006111 (39)
  Link YS02163601YS02164001 (39)
  Link YS02163301YS02001633 (38)
  Link YS02001629YS02163301 (38)
  Link YS02001619YS02001622 (37)
  
  
  *************************
  Routing Time Step Summary
  *************************
  Minimum Time Step           :     0.50 sec
  Average Time Step           :     1.00 sec
  Maximum Time Step           :     5.00 sec
  Percent in Steady State     :    -0.00
  Average Iterations per Step :     4.51
  Percent Not Converging      :    22.35
  
  
  ***************************
  Subcatchment Runoff Summary
  ***************************
  
  ------------------------------------------------------------------------------------------------------------------------------
                            Total      Total      Total      Total     Imperv       Perv      Total       Total     Peak  Runoff
                           Precip      Runon       Evap      Infil     Runoff     Runoff     Runoff      Runoff   Runoff   Coeff
  Subcatchment                 mm         mm         mm         mm         mm         mm         mm    10^6 ltr      LPS
  ------------------------------------------------------------------------------------------------------------------------------
  sub0                      12.16       0.00       0.00       0.65      11.27       0.20      11.47        0.01     1.99   0.943
  sub1                      12.16       0.00       0.00       1.12      10.73       0.22      10.95        0.07    14.96   0.900
  sub2                      12.16       0.00       0.00       4.23       7.58       0.27       7.85        0.07    15.08   0.646
  sub3                      12.16       0.00       0.00       4.29       7.54       0.21       7.75        0.17    34.61   0.637
  sub4                      12.16       0.00       0.00       1.19      10.57       0.14      10.71        0.22    42.34   0.881
  sub5                      12.16       0.00       0.00       0.69      11.21       0.16      11.38        0.13    26.18   0.935
  sub7                      12.16       0.00       0.00       0.88      11.01       0.22      11.22        0.04     7.95   0.923
  sub8                      12.16       0.00       0.00       0.89      11.00       0.21      11.20        0.07    14.89   0.921
  sub9                      12.16       0.00       0.00       0.89      10.99       0.21      11.20        0.05    11.18   0.921
  sub10                     12.16       0.00       0.00       0.79      11.10       0.18      11.28        0.12    25.49   0.928
  sub11                     12.16       0.00       0.00       0.78      11.12       0.19      11.31        0.13    27.35   0.930
  sub12                     12.16       0.00       0.00       1.27      10.53       0.31      10.85        0.09    20.52   0.892
  sub14                     12.16       0.00       0.00       0.89      10.99       0.20      11.20        0.11    22.08   0.920
  sub15                     12.16       0.00       0.00       3.28       8.45       0.37       8.82        0.15    32.49   0.725
  sub16                     12.16       0.00       0.00       3.51       8.11       0.50       8.61        0.09    20.36   0.708
  sub17                     12.16       0.00       0.00       3.41       8.23       0.48       8.71        0.07    16.72   0.716
  sub22                     12.16       0.00       0.00       4.80       6.89       0.43       7.32        0.46   102.62   0.602
  sub23                     12.16       0.00       0.00       4.05       7.62       0.45       8.07        0.38    85.35   0.663
  sub60                     12.16       0.00       0.00       1.42       8.82       0.04       8.86        2.69   336.84   0.729
  sub61                     12.16       0.00       0.00       2.01       8.94       0.06       9.00        2.78   399.45   0.740
  sub62                     12.16       0.00       0.00       0.92       9.73       0.05       9.78        3.01   415.79   0.804
  sub63                     12.16       0.00       0.00       3.46       7.82       0.06       7.88        2.39   361.21   0.648
  sub64                     12.16       0.00       0.00       1.78       8.47       0.04       8.51        2.59   320.97   0.699
  sub65                     12.16       0.00       0.00       1.54       8.61       0.04       8.65        2.66   326.54   0.711
  sub66                     12.16       0.00       0.00       3.49       7.26       0.04       7.30        2.24   290.53   0.600
  sub67                     12.16       0.00       0.00       0.91      10.24       0.07      10.31        3.18   494.23   0.848
  sub68                     12.16       0.00       0.00       1.64       9.40       0.06       9.46        2.91   432.52   0.778
  sub69                     12.16       0.00       0.00       1.73       9.72       0.09       9.82        2.29   383.95   0.807
  sub70                     12.16      10.02       0.00       6.98      13.09       0.56      13.65        3.12   394.93   0.615
  sub71                     12.16       0.00       0.00       0.93       9.48       0.05       9.53        2.25   296.34   0.783
  sub72                     12.16       0.00       0.00       0.83       7.62       0.02       7.64        1.56   151.13   0.628
  1                         12.16      13.29       0.00       1.37      14.64       3.94      18.57        4.36   399.24   0.730
  2                         12.16       0.00       0.00       3.02       2.89       1.65       4.55        1.82   245.52   0.374
  
  
  ****************************
  Subcatchment Washoff Summary
  ****************************
  
  ------------------------------------------------------------------------------------------
                                 COD            SS            TN            TP         NH4-N
  Subcatchment                    kg            kg            kg            kg            kg
  ------------------------------------------------------------------------------------------
  sub0                         2.176         4.147         0.037         0.003         0.018
  sub1                         9.268        18.138         0.173         0.012         0.083
  sub2                         5.563        10.570         0.119         0.008         0.054
  sub3                        13.747        25.918         0.288         0.019         0.132
  sub4                        21.530        42.606         0.429         0.026         0.205
  sub5                        21.300        41.103         0.378         0.029         0.183
  sub7                         4.748         9.424         0.090         0.006         0.043
  sub8                         7.142        14.500         0.143         0.008         0.069
  sub9                         6.100        12.212         0.118         0.007         0.057
  sub10                       17.532        34.266         0.321         0.023         0.155
  sub11                       17.086        33.770         0.320         0.022         0.154
  sub12                       14.392        27.890         0.260         0.019         0.125
  sub14                       13.021        25.823         0.247         0.016         0.119
  sub15                       16.182        30.744         0.313         0.023         0.146
  sub16                       10.318        19.555         0.197         0.015         0.092
  sub17                        9.471        17.789         0.175         0.014         0.082
  sub22                       48.821        90.813         0.932         0.070         0.434
  sub23                       29.138        56.181         0.627         0.041         0.287
  sub60                      203.703       376.194         4.083         0.248         1.956
  sub61                      251.300       461.579         4.699         0.320         2.261
  sub62                      262.762       491.326         5.157         0.324         2.474
  sub63                      185.047       334.594         3.739         0.261         1.731
  sub64                      253.867       452.095         4.687         0.339         2.235
  sub65                      260.106       465.192         4.834         0.344         2.309
  sub66                      146.558       263.078         3.037         0.197         1.417
  sub67                      388.205       718.566         6.963         0.510         3.363
  sub68                      276.714       513.393         5.318         0.356         2.539
  sub69                      247.676       464.012         4.658         0.325         2.225
  sub70                      413.256       778.342         8.287         0.572         3.877
  sub71                      173.740       327.842         3.597         0.206         1.720
  sub72                      136.329       239.316         2.558         0.174         1.230
  1                          280.724       531.718         5.751         0.398         2.660
  2                           35.485        61.812         1.030         0.062         0.437
  ------------------------------------------------------------------------------------------
  System                    3783.006      6994.507        73.566         4.996        34.873
  
  
  ******************
  Node Depth Summary
  ******************
  
  ---------------------------------------------------------------------------------
                                 Average  Maximum  Maximum  Time of Max    Reported
                                   Depth    Depth      HGL   Occurrence   Max Depth
  Node                 Type       Meters   Meters   Meters  days hr:min      Meters
  ---------------------------------------------------------------------------------
  WS02001211           JUNCTION     0.77     0.83     5.67     0  03:08        0.83
  WS02001212           JUNCTION     0.48     0.56     5.62     0  03:08        0.56
  WS02001213           JUNCTION     0.72     0.83     5.59     0  03:07        0.83
  WS02003069           JUNCTION     0.53     0.68     5.27     0  03:07        0.68
  WS02003072           JUNCTION     0.59     0.73     5.10     0  03:07        0.73
  WS02003073           JUNCTION     0.36     0.46     4.52     0  03:08        0.46
  WS02003060           JUNCTION     0.47     0.60     5.53     0  03:06        0.60
  WS02003066           JUNCTION     0.26     0.36     5.92     0  03:04        0.36
  WS02003059           JUNCTION     0.77     0.88     5.57     0  03:07        0.88
  WS02003067           JUNCTION     0.62     0.79     6.11     0  03:04        0.79
  WS02004401           JUNCTION     0.74     1.14     7.14     0  03:01        1.13
  WS02004402           JUNCTION     0.77     1.14     7.10     0  03:03        1.13
  WS02004403           JUNCTION     0.79     1.13     7.06     0  03:02        1.12
  WS02004404           JUNCTION     0.86     1.18     7.03     0  03:02        1.17
  WS02004406           JUNCTION     0.86     1.12     6.95     0  03:02        1.11
  WS02004409           JUNCTION     0.56     0.87     6.64     0  03:04        0.87
  WS02004410           JUNCTION     0.58     0.87     6.59     0  03:04        0.87
  WS02004411           JUNCTION     0.59     0.86     6.54     0  03:04        0.86
  WS02004412           JUNCTION     0.60     0.85     6.49     0  03:04        0.85
  WS02004413           JUNCTION     0.75     0.98     6.45     0  03:04        0.98
  WS02004405           JUNCTION     0.86     1.16     7.01     0  03:04        1.16
  WS02006109           JUNCTION     0.83     1.31     7.93     0  03:02        1.30
  WS02006110           JUNCTION     0.81     1.15     7.73     0  03:03        1.14
  WS02006111           JUNCTION     0.25     0.65     7.36     0  03:03        0.65
  WS02006112           JUNCTION     0.92     1.42     7.30     0  03:02        1.41
  WS02006113           JUNCTION     0.38     0.65     7.54     0  03:02        0.65
  WS02006115           JUNCTION     0.64     1.09     7.23     0  03:03        1.09
  WS02006116           JUNCTION     0.72     1.14     7.18     0  03:02        1.14
  WS02006230           JUNCTION     0.85     1.52     8.26     0  03:02        1.52
  WS02006231           JUNCTION     0.59     1.22     8.34     0  03:01        1.21
  WS02006232           JUNCTION     0.73     1.37     8.41     0  03:02        1.36
  WS02006234           JUNCTION     0.68     1.32     8.48     0  03:02        1.31
  WS02006235           JUNCTION     0.72     1.37     8.53     0  03:02        1.36
  WS02006238           JUNCTION     0.75     1.39     8.54     0  03:01        1.38
  WS02006240           JUNCTION     0.65     1.28     8.57     0  03:01        1.27
  WS02006242           JUNCTION     0.71     1.34     8.60     0  03:02        1.33
  WS02006243           JUNCTION     0.59     1.21     8.63     0  03:01        1.20
  WS02006245           JUNCTION     0.56     1.17     8.66     0  03:01        1.16
  WS02006247           JUNCTION     0.57     1.17     8.67     0  03:01        1.16
  WS02006248           JUNCTION     0.51     1.10     8.68     0  03:00        1.09
  WS02006249           JUNCTION     0.53     1.09     8.69     0  02:56        1.09
  WS02006239           JUNCTION     0.71     1.35     8.55     0  03:02        1.34
  WS02006251           JUNCTION     0.51     1.57     9.24     0  02:56        1.17
  WS02006252           JUNCTION     0.34     1.08     9.32     0  02:56        0.72
  WS02006253           JUNCTION     0.53     2.41    10.05     0  02:56        1.20
  WS02006256           JUNCTION     1.72     2.35     9.28     0  00:00        2.35
  WS02004138           JUNCTION     0.19     0.20     7.45     0  00:00        0.19
  WS02004139           JUNCTION     0.72     0.77     5.68     0  03:08        0.77
  WS02004407           JUNCTION     0.25     0.37     6.68     0  03:03        0.37
  WS02006228           JUNCTION     0.85     1.44     8.09     0  03:02        1.43
  WS02006229           JUNCTION     0.83     1.49     8.18     0  03:02        1.48
  WS02006280           JUNCTION     0.06     0.20     8.47     0  03:02        0.20
  WS02006284           JUNCTION     0.36     0.56     8.96     0  03:02        0.56
  WS02006287           JUNCTION     0.09     0.30     9.25     0  03:01        0.30
  WSF200               JUNCTION     0.25     0.40     5.64     0  03:04        0.40
  HS02004901           JUNCTION     0.12     0.29    10.12     0  03:01        0.29
  HS02004881           JUNCTION     0.01     0.04     9.07     0  02:56        0.04
  HS02004876           JUNCTION     0.04     0.12     9.15     0  03:01        0.12
  HS02004870           JUNCTION     0.01     0.07     9.35     0  03:01        0.07
  HS02004862           JUNCTION     0.02     0.08     9.46     0  03:01        0.08
  HS02004856           JUNCTION     0.08     0.13     9.55     0  03:01        0.13
  HS02004852           JUNCTION     0.01     0.05     9.56     0  03:01        0.05
  HS02004848           JUNCTION     0.01     0.05     9.65     0  03:01        0.05
  HS02004842           JUNCTION     0.33     0.38     9.65     0  03:01        0.38
  HS02004837           JUNCTION     0.03     0.07     9.65     0  03:01        0.07
  HS02004830           JUNCTION     0.04     0.08     9.55     0  03:01        0.08
  HS02004824           JUNCTION     0.02     0.06     9.47     0  03:01        0.06
  HS02004817           JUNCTION     0.44     0.61     9.45     0  03:01        0.61
  HS02004807           JUNCTION     0.12     0.28     9.45     0  03:01        0.28
  HS02004802           JUNCTION     0.16     0.31     9.44     0  03:01        0.31
  HS02004799           JUNCTION     0.11     0.35     9.56     0  03:01        0.35
  HS02004792           JUNCTION     0.03     0.15     9.67     0  03:01        0.15
  HS02004788           JUNCTION     0.02     0.11    10.01     0  03:01        0.11
  HS02004785           JUNCTION     0.04     0.18    10.09     0  03:01        0.18
  HS02004777           JUNCTION     0.14     0.31    10.11     0  03:01        0.31
  HS02004770           JUNCTION     0.11     0.29    10.12     0  03:01        0.29
  HS02004480           JUNCTION     0.08     0.28     9.52     0  03:01        0.28
  HS02004479           JUNCTION     0.11     0.32     9.52     0  03:01        0.32
  HS02004478           JUNCTION     0.06     0.20     9.42     0  03:01        0.20
  YS02001745           JUNCTION     0.75     0.91     8.43     0  03:00        0.91
  YS02001748           JUNCTION     1.16     1.55     8.63     0  02:27        1.34
  YS02001751           JUNCTION     1.35     1.55     8.43     0  03:00        1.54
  YS02001754           JUNCTION     1.60     1.82     8.43     0  02:57        1.81
  YS02001762           JUNCTION     1.81     2.06     8.46     0  03:26        2.02
  YS02001765           JUNCTION     1.76     2.01     8.46     0  03:26        1.97
  YS02001767           JUNCTION     1.72     1.96     8.44     0  03:26        1.92
  YS02001770           JUNCTION     1.71     1.92     8.42     0  03:26        1.91
  YS02001774           JUNCTION     1.78     1.98     8.40     0  03:26        1.97
  YS02001779           JUNCTION     1.53     1.68     8.37     0  02:36        1.68
  YS02001882           JUNCTION     0.51     1.62     8.33     0  03:00        1.62
  YS02001884           JUNCTION     0.61     1.72     8.33     0  02:57        1.71
  YS02001759           JUNCTION     1.84     2.09     8.45     0  03:26        2.06
  YS02001887           JUNCTION     0.68     1.80     8.34     0  03:00        1.79
  YS02001890           JUNCTION     0.71     1.81     8.32     0  02:44        1.81
  YS02001898           JUNCTION     0.48     1.56     8.29     0  03:00        1.55
  YS02001901           JUNCTION     0.60     1.67     8.28     0  02:59        1.67
  YS02001904           JUNCTION     0.58     1.64     8.27     0  02:59        1.63
  YS02001907           JUNCTION     0.91     1.96     8.25     0  02:44        1.96
  YS02001910           JUNCTION     0.70     1.78     8.29     0  02:46        1.76
  YS02001915           JUNCTION     0.50     1.59     8.31     0  02:45        1.57
  YS02001918           JUNCTION     0.25     1.26     8.33     0  02:45        1.23
  YS02001619           JUNCTION     1.31     1.58     8.51     0  02:27        1.47
  YS02001629           JUNCTION     1.67     1.85     8.40     0  02:27        1.84
  YS02001641           JUNCTION     1.77     1.94     8.38     0  02:35        1.93
  YS02001644           JUNCTION     1.77     1.92     8.35     0  02:35        1.92
  YS02001652           JUNCTION     1.62     2.16     8.76     0  03:36        1.98
  YS02001655           JUNCTION     1.37     2.17     9.02     0  03:36        1.86
  YS02001920           JUNCTION     0.35     1.34     8.35     0  02:45        1.30
  YS02001923           JUNCTION     0.19     1.10     8.36     0  02:45        1.06
  YS02001926           JUNCTION     0.26     0.91     8.36     0  02:45        0.91
  YS02001929           JUNCTION     0.15     0.69     8.38     0  02:46        0.66
  YS02001658           JUNCTION     1.10     2.07     9.21     0  03:41        1.70
  YS02001661           JUNCTION     0.86     2.25     9.66     0  03:36        1.55
  YS02001664           JUNCTION     0.38     0.57     8.49     0  04:06        0.56
  YS02001622           JUNCTION     1.33     1.56     8.46     0  02:27        1.49
  YS02001633           JUNCTION     1.76     1.95     8.40     0  02:35        1.94
  YS02001649           JUNCTION     1.81     2.05     8.44     0  02:37        2.05
  YS02001757           JUNCTION     1.94     2.18     8.44     0  03:26        2.16
  YS02001895           JUNCTION     0.48     1.57     8.31     0  03:00        1.56
  YS02001625           JUNCTION     1.62     1.78     8.38     0  02:27        1.78
  YS02163301           JUNCTION     1.70     1.89     8.40     0  02:36        1.88
  YS02163601           JUNCTION     1.81     1.99     8.39     0  02:35        1.98
  YS02164001           JUNCTION     1.75     1.92     8.38     0  02:35        1.91
  YS02001647           JUNCTION     1.60     1.80     8.41     0  03:34        1.79
  YSB1154              JUNCTION     0.25     0.47     9.52     0  03:01        0.47
  YSB6556              JUNCTION     0.15     0.35     9.52     0  03:01        0.35
  YSB1174              JUNCTION     0.20     0.41     9.52     0  03:01        0.41
  YSB1171              JUNCTION     0.41     0.62     9.52     0  03:01        0.62
  YS02006553           JUNCTION     0.91     1.97     8.25     0  02:58        1.96
  YS02006561           JUNCTION     0.28     1.08     7.74     0  02:44        1.07
  YS02006556           JUNCTION     0.88     1.92     8.23     0  02:57        1.91
  YS02006558           JUNCTION     0.92     1.96     8.23     0  02:59        1.95
  YS02001783           JUNCTION     0.49     1.47     7.61     0  02:44        1.46
  YS02001784           JUNCTION     0.51     1.56     7.63     0  02:34        1.40
  YS02001786           JUNCTION     0.45     1.77     7.80     0  02:34        1.25
  YS02001788           JUNCTION     0.38     1.52     7.49     0  02:34        1.12
  YS02001790           JUNCTION     0.49     1.96     7.60     0  04:37        1.29
  YS02001791           JUNCTION     0.44     2.72     8.19     0  04:36        1.26
  YS02001793           JUNCTION     0.60     2.64     7.47     0  04:35        2.42
  WSC                  OUTFALL      0.36     0.46     1.13     0  03:08        0.46
  JK-storage           STORAGE      2.54     5.80     6.60     0  02:34        5.80
  CC-storage           STORAGE      1.19     1.38     8.38     0  02:59        1.38
  XR-storage           STORAGE      6.76     7.72     5.72     0  02:50        7.72
  
  
  *******************
  Node Inflow Summary
  *******************
  
  -------------------------------------------------------------------------------------------------
                                  Maximum  Maximum                  Lateral       Total        Flow
                                  Lateral    Total  Time of Max      Inflow      Inflow     Balance
                                   Inflow   Inflow   Occurrence      Volume      Volume       Error
  Node                 Type           LPS      LPS  days hr:min    10^6 ltr    10^6 ltr     Percent
  -------------------------------------------------------------------------------------------------
  WS02001211           JUNCTION      7.35   389.49     0  03:13       0.207        9.97       0.404
  WS02001212           JUNCTION      0.00   391.37     0  03:13           0        9.93       0.214
  WS02001213           JUNCTION      0.00   392.97     0  03:13           0        9.91       0.307
  WS02003069           JUNCTION      0.32  1224.31     0  03:06     0.00902        20.1       0.163
  WS02003072           JUNCTION      0.00  1224.23     0  03:07           0        20.1       0.198
  WS02003073           JUNCTION      1.82  1226.18     0  03:07      0.0514        20.1       0.226
  WS02003060           JUNCTION     16.53  1223.83     0  03:06       0.466        20.1       0.153
  WS02003066           JUNCTION      0.00   829.89     0  03:05           0        9.85       0.041
  WS02003059           JUNCTION      0.00   395.31     0  03:18           0        9.88       0.396
  WS02003067           JUNCTION      0.00   829.76     0  03:04           0        9.85       0.087
  WS02004401           JUNCTION      0.00   831.34     0  03:02           0        10.1       0.192
  WS02004402           JUNCTION      0.00   832.39     0  03:03           0          10       0.182
  WS02004403           JUNCTION      0.00   831.84     0  03:02           0          10       0.169
  WS02004404           JUNCTION      0.16   832.46     0  03:03     0.00457          10       0.125
  WS02004406           JUNCTION      0.00   831.07     0  03:03           0        9.98       0.311
  WS02004409           JUNCTION      0.00   830.84     0  03:03           0        9.95       0.141
  WS02004410           JUNCTION      0.00   830.18     0  03:03           0        9.93       0.163
  WS02004411           JUNCTION      0.00   829.86     0  03:04           0        9.92       0.170
  WS02004412           JUNCTION      0.00   829.73     0  03:04           0         9.9       0.186
  WS02004413           JUNCTION      0.00   829.74     0  03:04           0        9.88       0.283
  WS02004405           JUNCTION      0.04   832.40     0  03:03     0.00107          10       0.195
  WS02006109           JUNCTION      1.23   818.68     0  03:02      0.0347        10.1       0.206
  WS02006110           JUNCTION      0.00   818.28     0  03:02           0        10.1       0.174
  WS02006111           JUNCTION      0.00   817.93     0  03:02           0        10.1       0.033
  WS02006112           JUNCTION     16.72   831.25     0  03:03      0.0747        10.1       0.248
  WS02006113           JUNCTION      0.00   818.25     0  03:02           0        10.1       0.081
  WS02006115           JUNCTION      0.00   831.10     0  03:03           0        10.1       0.175
  WS02006116           JUNCTION      0.00   831.33     0  03:02           0        10.1       0.171
  WS02006230           JUNCTION     10.28   532.61     0  06:41        0.29        7.94       0.163
  WS02006231           JUNCTION      0.00   522.31     0  06:41           0        7.65       0.086
  WS02006232           JUNCTION      0.00   522.15     0  06:41           0        7.67       0.198
  WS02006234           JUNCTION      0.00   522.72     0  06:41           0        7.67       0.082
  WS02006235           JUNCTION      0.00   523.64     0  06:39           0        7.72       0.123
  WS02006238           JUNCTION      0.00   413.30     0  05:40           0        4.39       0.156
  WS02006240           JUNCTION      0.00   412.58     0  05:40           0        4.37       0.232
  WS02006242           JUNCTION      0.00   412.61     0  05:40           0        4.37       0.293
  WS02006243           JUNCTION      0.00   412.52     0  05:40           0        4.37       0.177
  WS02006245           JUNCTION      0.00   413.19     0  05:40           0        4.38       0.205
  WS02006247           JUNCTION      0.00   413.61     0  05:40           0        4.38       0.148
  WS02006248           JUNCTION      0.00   414.06     0  05:40           0        4.39       0.101
  WS02006249           JUNCTION      0.00   487.38     0  03:00           0        4.67       0.188
  WS02006239           JUNCTION      0.00   412.80     0  05:40           0        4.38       0.181
  WS02006251           JUNCTION      0.08   487.37     0  03:01     0.00217        4.73       0.179
  WS02006252           JUNCTION      0.00   400.00     0  03:00           0        4.26       0.013
  WS02006253           JUNCTION      1.99   136.11     0  02:55     0.00928       0.467       0.775
  WS02006256           JUNCTION      0.00   983.00     0  00:00           0        9.85      -0.006
  WS02004138           JUNCTION      0.00   380.00     0  00:00           0         9.8       0.062
  WS02004139           JUNCTION      0.32   396.51     0  00:00     0.00905        9.81       0.462
  WS02004407           JUNCTION      0.00   831.11     0  03:03           0        9.95       0.063
  WS02006228           JUNCTION      0.00   817.30     0  03:02           0        10.1       0.148
  WS02006229           JUNCTION      0.00   817.26     0  03:02           0        10.1       0.117
  WS02006280           JUNCTION      0.00   413.62     0  03:02           0        2.17       0.007
  WS02006284           JUNCTION      0.10   413.57     0  03:02      0.0027        2.17       0.041
  WS02006287           JUNCTION      0.00   413.22     0  03:01           0        2.17       0.033
  WSF200               JUNCTION      0.00   829.94     0  03:05           0        9.84       0.037
  HS02004901           JUNCTION     20.36    20.36     0  03:01      0.0902      0.0904       1.990
  HS02004881           JUNCTION      7.95    84.19     0  03:01      0.0378        0.41       0.112
  HS02004876           JUNCTION     14.96    76.75     0  03:01      0.0728       0.373       0.148
  HS02004870           JUNCTION     14.89    62.15     0  03:01      0.0716         0.3       0.037
  HS02004862           JUNCTION     15.28    47.68     0  03:01      0.0788       0.229       0.077
  HS02004856           JUNCTION     11.18    32.73     0  03:01      0.0539       0.152       0.963
  HS02004852           JUNCTION      0.00    21.94     0  03:01           0      0.0979       0.059
  HS02004848           JUNCTION     34.61    34.61     0  03:01       0.174       0.174       0.028
  HS02004842           JUNCTION      0.00    12.41     0  03:01           0      0.0895      16.998
  HS02004837           JUNCTION     31.84    43.95     0  03:01       0.303        0.38       0.214
  HS02004830           JUNCTION      0.15    43.86     0  03:01     0.00423        0.37       0.334
  HS02004824           JUNCTION     42.39    85.90     0  03:01       0.225       0.594       0.091
  HS02004817           JUNCTION      0.60    86.28     0  03:01      0.0169        0.61       2.809
  HS02004807           JUNCTION     27.35   112.32     0  03:01       0.131       0.726       0.604
  HS02004802           JUNCTION      0.00   111.37     0  03:01           0       0.723       0.549
  HS02004799           JUNCTION     22.08   258.93     0  03:01       0.107        1.24       0.223
  HS02004792           JUNCTION    102.90   238.01     0  03:01        0.47        1.14       0.036
  HS02004788           JUNCTION     34.16   135.94     0  03:01       0.199       0.669       0.059
  HS02004785           JUNCTION      0.15   103.52     0  03:01     0.00423       0.471       0.106
  HS02004777           JUNCTION      0.03   104.16     0  03:01    0.000846       0.472       1.115
  HS02004770           JUNCTION     85.35   105.11     0  03:01       0.385       0.473       0.659
  HS02004480           JUNCTION      0.00   302.45     0  03:01           0        1.46       0.076
  HS02004479           JUNCTION      0.00    44.91     0  03:02           0       0.232       0.317
  HS02004478           JUNCTION      0.00   413.09     0  03:01           0        2.17       0.014
  YS02001745           JUNCTION    336.84   392.56     0  02:26        2.69         2.7       0.410
  YS02001748           JUNCTION      0.04   558.84     0  02:26     0.00127        2.69       0.816
  YS02001751           JUNCTION      0.01   354.99     0  02:17     0.00031        2.65       0.908
  YS02001754           JUNCTION      0.26   342.67     0  03:01     0.00733        2.64       0.952
  YS02001762           JUNCTION      0.00   292.98     0  02:38           0        1.67       1.292
  YS02001765           JUNCTION      0.00   293.33     0  02:38           0        1.67       1.479
  YS02001767           JUNCTION      0.54   293.52     0  02:38      0.0151         1.7       2.147
  YS02001770           JUNCTION    415.94   535.73     0  03:01        3.01        3.19       0.991
  YS02001774           JUNCTION      0.00   537.46     0  03:01           0        1.66       1.532
  YS02001779           JUNCTION      0.01   538.50     0  03:01    0.000141        1.63       0.951
  YS02001882           JUNCTION      0.00    40.41     0  02:36           0      0.0161      16.924
  YS02001884           JUNCTION      0.00    73.71     0  02:36           0       0.054      13.009
  YS02001759           JUNCTION    399.49   574.90     0  02:38        2.78        4.24       0.545
  YS02001887           JUNCTION    494.68   494.77     0  03:01        3.19        3.23       0.267
  YS02001890           JUNCTION      0.00   496.55     0  03:01           0        3.18       0.296
  YS02001898           JUNCTION      0.00   494.87     0  03:01           0        3.16       0.100
  YS02001901           JUNCTION      0.00   495.37     0  03:01           0        3.16       0.220
  YS02001904           JUNCTION      0.00   494.74     0  03:00           0        3.16       0.205
  YS02001907           JUNCTION      0.00   942.38     0  03:00           0        7.02       0.349
  YS02001910           JUNCTION      0.00   450.56     0  02:59           0        3.87       0.309
  YS02001915           JUNCTION    296.36   450.63     0  03:00        2.25         3.9       0.157
  YS02001918           JUNCTION      0.00   211.96     0  02:46           0        1.66       0.120
  YS02001619           JUNCTION    290.53   290.53     0  03:01        2.24        2.24       0.548
  YS02001629           JUNCTION      0.00   205.17     0  02:17           0        1.69       1.740
  YS02001641           JUNCTION      0.00   398.71     0  02:34           0        4.25       0.498
  YS02001644           JUNCTION    321.01  1315.01     0  03:00        2.59        9.51       0.274
  YS02001652           JUNCTION      0.00   383.70     0  03:01           0        2.35       1.005
  YS02001655           JUNCTION      0.15   382.67     0  02:18     0.00434        2.37       1.056
  YS02001920           JUNCTION      2.87   211.33     0  02:46      0.0809        1.64       0.185
  YS02001923           JUNCTION      0.04   230.71     0  02:47     0.00106        1.56       0.050
  YS02001926           JUNCTION      0.05   185.58     0  02:46     0.00147        1.56       0.210
  YS02001929           JUNCTION    151.13   151.13     0  03:01        1.56        1.56       0.036
  YS02001658           JUNCTION      0.00   623.85     0  02:23           0        2.41       0.935
  YS02001661           JUNCTION      0.00   621.35     0  02:38           0        2.89      -0.338
  YS02001664           JUNCTION    361.21   361.21     0  03:01        2.38        2.88       0.228
  YS02001622           JUNCTION      0.00   290.95     0  03:01           0        2.22       1.452
  YS02001633           JUNCTION    326.74   397.61     0  02:35        2.66        4.31       0.752
  YS02001649           JUNCTION      0.00   827.37     0  02:35           0        5.52       0.681
  YS02001757           JUNCTION      0.00  1578.95     0  02:35           0         9.4       0.984
  YS02001895           JUNCTION      0.00   495.89     0  03:01           0        3.17       0.168
  YS02001625           JUNCTION      0.00   290.82     0  03:01           0        2.19       1.810
  YS02163301           JUNCTION      0.00   204.49     0  02:27           0        1.67       1.465
  YS02163601           JUNCTION      0.11   397.50     0  02:34      0.0031        4.27       0.707
  YS02164001           JUNCTION      0.00   398.54     0  02:34           0        4.25       0.477
  YS02001647           JUNCTION      0.00   611.93     0  03:01           0        4.63       0.615
  YSB1154              JUNCTION     26.18    26.18     0  03:01       0.129        0.13       1.130
  YSB6556              JUNCTION      0.00    25.82     0  03:01           0        0.13       0.969
  YSB1174              JUNCTION     20.52    20.52     0  03:01      0.0948      0.0953       1.368
  YSB1171              JUNCTION      0.00    45.30     0  03:01           0       0.231       2.821
  YS02006553           JUNCTION      0.00   703.59     0  03:31           0        6.56       0.240
  YS02006561           JUNCTION      0.00   982.56     0  03:00           0        9.44       0.008
  YS02006556           JUNCTION      0.00   703.54     0  03:31           0        6.57       0.174
  YS02006558           JUNCTION    433.40   983.63     0  03:00        2.93        9.47       0.056
  YS02001783           JUNCTION      0.00   982.77     0  03:00           0        9.44       0.025
  YS02001784           JUNCTION      1.06   983.39     0  03:01      0.0299        9.47       0.039
  YS02001786           JUNCTION      0.06   983.49     0  03:00     0.00159        9.47       0.037
  YS02001788           JUNCTION      0.07   983.56     0  03:00       0.002        9.47       0.023
  YS02001790           JUNCTION      0.15   984.11     0  03:00     0.00437        9.47       0.018
  YS02001791           JUNCTION      0.00   984.17     0  03:00           0        9.47       0.010
  YS02001793           JUNCTION      0.00   984.29     0  03:00           0        9.49      -0.007
  WSC                  OUTFALL       0.00  1226.37     0  03:08           0        20.1       0.000
  JK-storage           STORAGE       0.00  1135.95     0  02:04           0        9.64     -11.293
  CC-storage           STORAGE       0.00  1579.36     0  02:35           0           8       0.807
  XR-storage           STORAGE     844.76   844.76     0  03:01        11.8        12.4      -0.002
  
  
  **********************
  Node Surcharge Summary
  **********************
  
  Surcharging occurs when water rises above the top of the highest conduit.
  ---------------------------------------------------------------------
                                               Max. Height   Min. Depth
                                   Hours       Above Crown    Below Rim
  Node                 Type      Surcharged         Meters       Meters
  ---------------------------------------------------------------------
  WS02004401           JUNCTION        0.31          0.137        1.523
  WS02004402           JUNCTION        0.37          0.138        1.602
  WS02004403           JUNCTION        0.38          0.126        1.904
  WS02004404           JUNCTION        0.77          0.177        2.603
  WS02004406           JUNCTION        0.48          0.116        2.334
  WS02004405           JUNCTION        0.62          0.157        2.643
  WS02006109           JUNCTION        4.05          0.493        1.327
  WS02006110           JUNCTION        1.54          0.239        1.611
  WS02006112           JUNCTION        2.18          0.417        1.263
  WS02006115           JUNCTION        0.20          0.079        2.171
  WS02006116           JUNCTION        0.22          0.085        2.205
  WS02006230           JUNCTION        1.04          0.440        1.130
  WS02006231           JUNCTION        1.46          0.507        1.023
  WS02006232           JUNCTION        3.81          0.667        0.813
  WS02006234           JUNCTION        2.86          0.602        0.638
  WS02006235           JUNCTION        3.19          0.659        0.631
  WS02006238           JUNCTION        3.30          0.675        0.755
  WS02006240           JUNCTION        2.72          0.572        0.818
  WS02006242           JUNCTION        2.82          0.605        0.215
  WS02006243           JUNCTION        1.88          0.500        0.270
  WS02006245           JUNCTION        1.57          0.461        0.389
  WS02006247           JUNCTION        1.59          0.460        0.300
  WS02006248           JUNCTION        1.36          0.375        0.005
  WS02006249           JUNCTION        1.42          0.390        0.000
  WS02006239           JUNCTION        2.83          0.606        0.684
  WS02006251           JUNCTION        0.72          0.539        0.641
  WS02006252           JUNCTION        1.79          0.676        0.424
  WS02006253           JUNCTION        0.76          1.365        1.115
  WS02006256           JUNCTION        6.71          2.050        0.000
  WS02006228           JUNCTION        4.00          0.613        1.587
  YS02001748           JUNCTION        5.31          0.471        0.719
  YS02001751           JUNCTION        5.48          0.552        0.648
  YS02001754           JUNCTION        5.69          0.773        0.377
  YS02001762           JUNCTION        5.87          1.059        0.091
  YS02001765           JUNCTION        5.84          1.006        0.094
  YS02001767           JUNCTION        5.81          0.956        0.074
  YS02001770           JUNCTION        5.80          0.895        0.025
  YS02001774           JUNCTION        5.86          0.979        0.071
  YS02001779           JUNCTION        5.68          0.680        0.000
  YS02001882           JUNCTION        0.90          0.619        0.211
  YS02001884           JUNCTION        0.92          0.657        0.213
  YS02001759           JUNCTION        5.89          1.090        0.120
  YS02001887           JUNCTION        0.99          0.748        0.202
  YS02001890           JUNCTION        1.02          0.760        0.000
  YS02001898           JUNCTION        0.86          0.528        0.212
  YS02001901           JUNCTION        0.96          0.674        0.196
  YS02001904           JUNCTION        0.94          0.639        0.211
  YS02001907           JUNCTION        1.76          0.950        0.000
  YS02001910           JUNCTION        1.06          0.778        0.322
  YS02001915           JUNCTION        0.89          0.587        0.413
  YS02001918           JUNCTION        0.71          0.261        0.549
  YS02001619           JUNCTION        5.47          0.578        0.032
  YS02001629           JUNCTION        5.48          0.470        0.000
  YS02001641           JUNCTION        5.85          0.939        0.161
  YS02001644           JUNCTION        5.85          0.920        0.000
  YS02001652           JUNCTION        5.73          1.130        0.000
  YS02001655           JUNCTION        5.50          1.170        0.030
  YS02001920           JUNCTION        0.73          0.340        0.800
  YS02001658           JUNCTION        5.34          1.072        0.228
  YS02001661           JUNCTION        0.26          1.183        0.207
  YS02001622           JUNCTION        5.51          0.556        0.064
  YS02001633           JUNCTION        5.83          0.927        0.133
  YS02001649           JUNCTION        5.87          1.050        0.000
  YS02001757           JUNCTION        5.98          1.177        0.033
  YS02001895           JUNCTION        0.88          0.566        0.184
  YS02001625           JUNCTION        5.76          0.780        0.000
  YS02163301           JUNCTION        5.81          0.885        0.145
  YS02163601           JUNCTION        5.87          0.992        0.088
  YS02164001           JUNCTION        5.84          0.920        0.180
  YS02001647           JUNCTION        5.75          0.800        0.100
  YS02006553           JUNCTION        1.87          0.966        0.224
  YS02006561           JUNCTION        0.77          0.281        0.869
  YS02006556           JUNCTION        1.30          0.881        0.469
  YS02006558           JUNCTION        1.26          0.860        0.540
  YS02001783           JUNCTION        1.04          0.668        0.932
  YS02001784           JUNCTION        1.02          0.760        0.730
  YS02001786           JUNCTION        0.97          0.967        0.463
  YS02001788           JUNCTION        0.91          0.716        0.764
  YS02001790           JUNCTION        1.65          1.157        0.000
  YS02001791           JUNCTION        1.74          1.920        0.000
  YS02001793           JUNCTION        2.00          1.640        0.960
  
  
  *********************
  Node Flooding Summary
  *********************
  
  Flooding refers to all water that overflows a node, whether it ponds or not.
  --------------------------------------------------------------------------
                                                             Total   Maximum
                                 Maximum   Time of Max       Flood    Ponded
                        Hours       Rate    Occurrence      Volume     Depth
  Node                 Flooded       LPS   days hr:min    10^6 ltr    Meters
  --------------------------------------------------------------------------
  WS02006249              0.65    264.74      0  03:01       0.273     0.000
  WS02006256              3.93    978.40      0  00:00       6.492     0.000
  YS02001779              2.57    538.00      0  03:01       1.612     0.000
  YS02001890              0.01      1.13      0  03:01       0.000     0.000
  YS02001907              0.58    393.61      0  03:01       0.442     0.000
  YS02001629              0.01      9.87      0  02:27       0.000     0.000
  YS02001644              4.35   1314.99      0  03:00       7.542     0.000
  YS02001652              0.01      3.52      0  03:36       0.000     0.000
  YS02001649              0.05     33.24      0  03:40       0.002     0.000
  YS02001625              1.21    235.78      0  03:01       0.465     0.000
  YS02001790              0.01    113.37      0  04:37       0.000     0.000
  YS02001791              0.01    210.53      0  04:36       0.000     0.000
  JK-storage              0.71    815.40      0  02:40       0.881     0.000
  XR-storage              3.14    464.64      0  03:01       1.990     0.000
  
  
  **********************
  Storage Volume Summary
  **********************
  
  --------------------------------------------------------------------------------------------------
                         Average     Avg  Evap Exfil       Maximum     Max    Time of Max    Maximum
                          Volume    Pcnt  Pcnt  Pcnt        Volume    Pcnt     Occurrence    Outflow
  Storage Unit           1000 m3    Full  Loss  Loss       1000 m3    Full    days hr:min        LPS
  --------------------------------------------------------------------------------------------------
  JK-storage               0.128      44     0     0         0.291     100       0  02:34     983.00
  CC-storage               3.328      21     0     0         3.844      25       0  02:59     400.00
  XR-storage               0.811      88     0     0         0.926     100       0  02:50     380.00
  
  
  ***********************
  Outfall Loading Summary
  ***********************
  
  ---------------------------------------------------------------------------------------------------------------------------------
                         Flow       Avg       Max       Total         Total         Total         Total         Total         Total
                         Freq      Flow      Flow      Volume           COD            SS            TN            TP         NH4-N
  Outfall Node           Pcnt       LPS       LPS    10^6 ltr            kg            kg            kg            kg            kg
  ---------------------------------------------------------------------------------------------------------------------------------
  WSC                   99.99    808.78   1226.37      20.054      2342.341      4005.967       150.911        17.769        91.376
  ---------------------------------------------------------------------------------------------------------------------------------
  System                99.99    808.78   1226.37      20.054      2342.341      4005.967       150.911        17.769        91.376
  
  
  ********************
  Link Flow Summary
  ********************
  
  -----------------------------------------------------------------------------
                                 Maximum  Time of Max   Maximum    Max/    Max/
                                  |Flow|   Occurrence   |Veloc|    Full    Full
  Link                 Type          LPS  days hr:min     m/sec    Flow   Depth
  -----------------------------------------------------------------------------
  WS02003066WSF200     CONDUIT    829.94     0  03:05      2.94    0.14    0.30
  WS02006287WS02006284 CONDUIT    413.47     0  03:02      2.04    0.19    0.30
  WS02006284WS02006280 CONDUIT    413.62     0  03:02      2.28    0.17    0.28
  WS02006280WS02006229 CONDUIT    413.62     0  03:02      3.60    0.09    0.25
  WS02006229WS02006228 CONDUIT    817.30     0  03:02      1.63    2.71    1.00
  WS02006256WS02006235 CONDUIT    288.60     0  00:00      4.23    3.05    1.00
  WS02006253WS02006251 CONDUIT    129.22     0  07:00      0.60    0.39    1.00
  WS02006252WS02006251 CONDUIT    400.87     0  03:00      3.19    1.47    1.00
  WS02006251WS02006249 CONDUIT    487.38     0  03:00      1.27    1.41    1.00
  WS02006249WS02006248 CONDUIT    414.06     0  05:40      1.14    2.27    1.00
  WS02006248WS02006247 CONDUIT    413.61     0  05:40      1.11    0.90    1.00
  WS02006247WS02006245 CONDUIT    413.19     0  05:40      1.08    3.28    1.00
  WS02006245WS02006243 CONDUIT    412.52     0  05:40      1.09    1.22    1.00
  WS02006243WS02006242 CONDUIT    412.61     0  05:40      1.07    0.88    1.00
  WS02006242WS02006240 CONDUIT    412.58     0  05:40      1.07    1.64    1.00
  WS02006240WS02006239 CONDUIT    412.80     0  05:40      1.07    1.30    1.00
  WS02006239WS02006238 CONDUIT    413.30     0  05:40      1.07    1.32    1.00
  WS02006238WS02006235 CONDUIT    414.59     0  05:40      1.46    0.93    1.00
  WS02006235WS02006234 CONDUIT    522.72     0  06:41      1.36    5.51    1.00
  WS02006234WS02006232 CONDUIT    522.15     0  06:41      1.39    1.06    1.00
  WS02006232WS02006231 CONDUIT    522.31     0  06:41      1.36    1.09    1.00
  WS02006231WS02006230 CONDUIT    522.33     0  06:41      1.36    7.92    1.00
  WS02006230WS02006229 CONDUIT    533.75     0  05:00      1.39   11.88    1.00
  WS02006228WS02006109 CONDUIT    817.45     0  03:02      1.63    3.57    1.00
  WS02006116WS02004401 CONDUIT    831.34     0  03:02      1.06    1.15    1.00
  WS02006115WS02006116 CONDUIT    831.33     0  03:02      1.06    1.07    1.00
  WS02006113WS02006111 CONDUIT    817.93     0  03:02      2.60    0.98    0.81
  WS02006112WS02006115 CONDUIT    831.10     0  03:03      1.06    0.49    1.00
  WS02006111WS02006112 CONDUIT    818.84     0  03:03      1.74    0.39    0.90
  WS02006110WS02006113 CONDUIT    818.25     0  03:02      1.76    0.74    0.90
  WS02006109WS02006110 CONDUIT    818.28     0  03:02      1.63    1.57    1.00
  WS02004411WS02004412 CONDUIT    829.73     0  03:04      1.16    1.18    0.85
  WS02004401WS02004402 CONDUIT    832.39     0  03:03      1.06    1.00    1.00
  WS02004413WS02003067 CONDUIT    829.76     0  03:04      1.42    0.36    0.70
  WS02004412WS02004413 CONDUIT    829.74     0  03:04      1.10    0.56    0.91
  WS02004410WS02004411 CONDUIT    829.86     0  03:04      1.15    1.13    0.86
  WS02004409WS02004410 CONDUIT    830.18     0  03:03      1.15    1.07    0.87
  WS02004407WS02004409 CONDUIT    830.84     0  03:03      1.65    0.29    0.62
  WS02004406WS02004407 CONDUIT    831.11     0  03:03      1.45    0.37    0.69
  WS02004405WS02004406 CONDUIT    831.07     0  03:03      1.06    1.64    1.00
  WS02004404WS02004405 CONDUIT    832.36     0  03:03      1.06    8.15    1.00
  WS02004403WS02004404 CONDUIT    832.30     0  03:03      1.06    0.60    1.00
  WS02004402WS02004403 CONDUIT    831.84     0  03:02      1.06    1.20    1.00
  WS02004139WS02001211 CONDUIT    382.15     0  03:13      0.90    0.48    0.63
  WS02004138WS02004139 CONDUIT    396.19     0  00:00      3.65    0.08    0.46
  WS02003067WS02003066 CONDUIT    829.89     0  03:05      1.54    0.27    0.48
  WS02001213WS02003059 CONDUIT    395.31     0  03:18      0.88    0.65    0.84
  WS02001212WS02001213 CONDUIT    392.97     0  03:13      1.32    0.61    0.53
  WS02001211WS02001212 CONDUIT    391.37     0  03:13      0.78    0.30    0.69
  WS02003072WS02003073 CONDUIT   1224.36     0  03:07      1.90    2.64    0.55
  WS02003069WS02003072 CONDUIT   1224.23     0  03:07      1.77    0.59    0.59
  WS02003060WS02003069 CONDUIT   1223.99     0  03:06      1.99    0.48    0.54
  WS02003059WS02003060 CONDUIT    398.23     0  03:18      0.95    0.26    0.74
  HS02004901HS02004770 CONDUIT     20.53     0  03:01      0.07    0.08    0.42
  HS02004876HS02004881 CONDUIT     76.55     0  03:01      0.95    0.81    0.12
  HS02004870HS02004876 CONDUIT     61.90     0  03:01      0.65    0.04    0.14
  HS02004842HS02004848 CONDUIT     12.41     0  03:01      0.06    0.01    0.31
  HS02004837HS02004842 CONDUIT     12.98     0  03:02      0.42    0.01    0.32
  HS02004830HS02004837 CONDUIT     43.71     0  03:01      0.57    0.04    0.11
  HS02004824HS02004830 CONDUIT     43.66     0  03:01      0.59    0.06    0.11
  HS02004817HS02004824 CONDUIT     85.68     0  03:01      0.26    0.04    0.48
  HS02004770HS02004777 CONDUIT    104.13     0  03:01      0.35    0.19    0.43
  HS02004799HS02004480 CONDUIT    258.31     0  03:01      0.83    0.33    0.44
  HS02004792HS02004799 CONDUIT    237.05     0  03:01      0.95    0.15    0.36
  HS02004788HS02004792 CONDUIT    135.43     0  03:01      1.06    0.09    0.18
  HS02004785HS02004788 CONDUIT    103.22     0  03:02      0.71    0.78    0.21
  HS02004777HS02004785 CONDUIT    103.37     0  03:01      0.42    0.13    0.35
  HS02004480HS02004478 CONDUIT    302.29     0  03:01      1.26    1.27    0.34
  HS02004479HS02004480 CONDUIT     46.29     0  03:02      0.32    0.04    0.43
  HS02004862HS02004870 CONDUIT     47.43     0  03:01      0.66    0.05    0.10
  HS02004848HS02004852 CONDUIT     21.94     0  03:01      0.45    0.02    0.07
  HS02004856HS02004862 CONDUIT     32.47     0  03:01      0.48    0.03    0.10
  HS02004852HS02004856 CONDUIT     21.85     0  03:02      0.25    0.02    0.13
  HS02004802HS02004478 CONDUIT    111.52     0  03:02      0.45    0.10    0.36
  HS02004478WS02006287 CONDUIT    413.22     0  03:01      1.75    0.12    0.26
  HS02004817HS02004807 CONDUIT     86.14     0  03:01      0.19    0.05    0.63
  HS02004807HS02004802 CONDUIT    111.37     0  03:01      0.38    0.21    0.42
  YS02001759YS02001757 CONDUIT    575.26     0  02:38      0.73    0.41    1.00
  YS02001762YS02001759 CONDUIT    292.32     0  02:38      0.37    0.34    1.00
  YS02001765YS02001762 CONDUIT    292.98     0  02:38      0.37    0.27    1.00
  YS02001770YS02001767 CONDUIT    292.99     0  02:38      0.37    1.16    1.00
  YS02001774YS02001770 CONDUIT    537.46     0  03:01      0.68    0.34    1.00
  YS02001779YS02001774 CONDUIT    538.50     0  03:01      0.69    0.27    1.00
  YS02001649YS02001757 CONDUIT    826.12     0  02:35      1.05    0.50    1.00
  YS02001767YS02001765 CONDUIT    293.33     0  02:38      0.37    0.37    1.00
  YS02006561YS02001783 CONDUIT    982.77     0  03:00      2.15    0.51    1.00
  YS02001783YS02001784 CONDUIT    982.33     0  03:01      1.95    1.35    1.00
  YS02001784YS02001785 CONDUIT    983.43     0  03:00      1.96    2.29    1.00
  YS02001788YS02001790 CONDUIT    983.95     0  03:00      2.44    0.73    1.00
  YS02001790YS02001791 CONDUIT    984.17     0  03:00      2.91    1.07    1.00
  YS02001791YS02001793 CONDUIT    984.29     0  03:00      5.75    0.42    1.00
  YS02001910YS02001907 CONDUIT    450.90     0  03:00      0.57    0.25    1.00
  YS02001786YS02001788 CONDUIT    983.49     0  03:00      2.31    1.89    1.00
  YS02001915YS02001910 CONDUIT    450.56     0  02:59      0.59    0.22    1.00
  YS02001918YS02001915 CONDUIT    246.89     0  03:31      0.44    0.14    1.00
  YS02001923YS02001920 CONDUIT    208.46     0  02:46      0.72    0.09    1.00
  YS02001926YS02001923 CONDUIT    230.67     0  02:47      0.83    0.33    0.89
  YS02001929YS02001926 CONDUIT    185.53     0  02:46      0.89    0.09    0.79
  YS02001920YS02001918 CONDUIT    211.96     0  02:46      0.70    0.21    1.00
  YS02001629YS02163301 CONDUIT    204.49     0  02:27      0.26    0.25    1.00
  YS02001619YS02001622 CONDUIT    290.95     0  03:01      0.61    0.43    1.00
  YS02001622YS02001625 CONDUIT    290.82     0  03:01      0.37    0.16    1.00
  YS02001625YS02001629 CONDUIT    205.17     0  02:17      0.26    0.10    1.00
  YS02163301YS02001633 CONDUIT    206.45     0  02:27      0.26    0.19    1.00
  YS02163601YS02164001 CONDUIT    398.54     0  02:34      0.51    0.35    1.00
  YS02164001YS02001641 CONDUIT    398.71     0  02:34      0.51    0.54    1.00
  YS02001641YS02001644 CONDUIT    399.07     0  02:34      0.51    1.29    1.00
  YS02001647YS02001649 CONDUIT    611.93     0  03:01      0.78    0.32    1.00
  YS02006553YS02006556 CONDUIT    703.54     0  03:31      0.90    0.60    1.00
  YS02006556YS02006558 CONDUIT    704.11     0  03:31      0.90    0.56    1.00
  YSB6556YSB1171       CONDUIT     25.76     0  03:03      0.09    0.03    0.70
  YS02001907YS02006553 CONDUIT    703.59     0  03:31      0.78    0.83    1.00
  YS02006558YS02006561 CONDUIT    982.56     0  03:00      3.48    2.17    1.00
  YS02001633YS02163601 CONDUIT    397.39     0  02:34      0.51    0.42    1.00
  YS02001644YS02001647 CONDUIT    612.22     0  03:00      0.78    0.36    1.00
  YS02001745YS02001748 CONDUIT    558.79     0  02:26      1.47    0.22    0.96
  YS02001748YS02001751 CONDUIT    354.98     0  02:17      1.06    0.18    1.00
  YS02001751YS02001754 CONDUIT    342.41     0  03:01      0.92    0.17    1.00
  YS02001754YS02001757 CONDUIT    342.45     0  03:01      0.44    0.14    1.00
  YS02001882YS02001884 CONDUIT     40.41     0  02:36      0.13    0.05    1.00
  YS02001884YS02001887 CONDUIT     73.71     0  02:36      0.09    0.10    1.00
  YS02001890YS02001895 CONDUIT    495.89     0  03:01      0.63    0.23    1.00
  YS02001895YS02001898 CONDUIT    494.87     0  03:01      0.63    0.86    1.00
  YS02001898YS02001901 CONDUIT    495.37     0  03:01      0.63    0.32    1.00
  YS02001901YS02001904 CONDUIT    494.74     0  03:00      0.63    0.77    1.00
  YS02001904YS02001907 CONDUIT    495.23     0  03:00      0.63    0.17    1.00
  YS02001887YS02001890 CONDUIT    496.55     0  03:01      0.63    0.85    1.00
  YS02001652YS02001649 CONDUIT    385.40     0  03:01      0.63    0.19    1.00
  YS02001655YS02001652 CONDUIT    383.70     0  03:01      0.98    0.19    1.00
  YS02001658YS02001655 CONDUIT    382.51     0  02:18      1.22    0.16    1.00
  YS02001661YS02001658 CONDUIT    623.85     0  02:23      1.55    0.24    1.00
  YS02001664YS02001661 CONDUIT    621.35     0  02:38      1.43    0.19    0.76
  YSB1154YSB6556       CONDUIT     25.82     0  03:01      0.17    0.05    0.59
  YSB1174YSB1171       CONDUIT     20.15     0  03:01      0.07    0.03    0.70
  YSB1171HS02004479    CONDUIT     44.91     0  03:02      0.54    0.03    0.55
  HS02004881HS02006253 CONDUIT    100.75     0  02:56      2.14    0.02    0.53
  YS02001793JiankangQianchi CONDUIT   1135.95     0  02:04     17.53    0.09    1.00
  YS02001757CaochengTiaoxuchi CONDUIT   1579.36     0  02:35      2.02    0.69    1.00
  WSF200WS02003060     CONDUIT    830.11     0  03:05      1.85    0.18    0.42
  1                    CONDUIT   1226.37     0  03:08      3.51    0.43    0.46
  CC-Pump-1            PUMP       200.00     0  03:00              1.00
  CC-Pump-2            PUMP       200.00     0  03:00              1.00
  JK-Pump-1            PUMP       300.00     0  00:00              1.00
  JK-Pump-2            PUMP       683.00     0  00:00              1.00
  XR-Pump-1            PUMP        95.00     0  00:00              1.00
  XR-Pump-2            PUMP        95.00     0  00:00              1.00
  XR-Pump-3            PUMP        95.00     0  00:00              1.00
  XR-Pump-4            PUMP        95.00     0  00:00              1.00
  
  
  ***************************
  Flow Classification Summary
  ***************************
  
  -------------------------------------------------------------------------------------
                      Adjusted    ---------- Fraction of Time in Flow Class ---------- 
                       /Actual         Up    Down  Sub   Sup   Up    Down  Norm  Inlet 
  Conduit               Length    Dry  Dry   Dry   Crit  Crit  Crit  Crit  Ltd   Ctrl  
  -------------------------------------------------------------------------------------
  WS02003066WSF200        1.00   0.01  0.05  0.00  0.00  0.94  0.00  0.00  0.51  0.00
  WS02006287WS02006284    1.00   0.02  0.01  0.00  0.67  0.30  0.00  0.00  0.62  0.00
  WS02006284WS02006280    1.00   0.03  0.00  0.00  0.00  0.00  0.00  0.97  0.00  0.00
  WS02006280WS02006229    1.00   0.03  0.00  0.00  0.00  0.01  0.00  0.96  0.02  0.00
  WS02006229WS02006228    1.00   0.00  0.00  0.00  1.00  0.00  0.00  0.00  0.00  0.00
  WS02006256WS02006235    1.00   0.00  0.00  0.00  1.00  0.00  0.00  0.00  0.00  0.00
  WS02006253WS02006251    1.00   0.01  0.01  0.00  0.97  0.00  0.00  0.00  0.00  0.00
  WS02006252WS02006251    1.00   0.15  0.00  0.00  0.09  0.00  0.76  0.00  0.00  0.00
  WS02006251WS02006249    1.00   0.00  0.00  0.00  1.00  0.00  0.00  0.00  0.20  0.00
  WS02006249WS02006248    1.00   0.00  0.01  0.00  0.93  0.00  0.06  0.00  0.00  0.00
  WS02006248WS02006247    1.00   0.01  0.00  0.00  0.98  0.00  0.00  0.01  0.12  0.00
  WS02006247WS02006245    1.00   0.01  0.00  0.00  0.97  0.00  0.00  0.02  0.00  0.00
  WS02006245WS02006243    1.00   0.00  0.00  0.00  0.96  0.00  0.00  0.03  0.02  0.00
  WS02006243WS02006242    1.00   0.00  0.00  0.00  1.00  0.00  0.00  0.00  0.22  0.00
  WS02006242WS02006240    1.00   0.00  0.00  0.00  1.00  0.00  0.00  0.00  0.00  0.00
  WS02006240WS02006239    1.00   0.00  0.00  0.00  0.96  0.00  0.00  0.04  0.01  0.00
  WS02006239WS02006238    1.00   0.00  0.00  0.00  1.00  0.00  0.00  0.00  0.14  0.00
  WS02006238WS02006235    1.00   0.00  0.00  0.00  1.00  0.00  0.00  0.00  0.00  0.00
  WS02006235WS02006234    1.00   0.00  0.00  0.00  0.97  0.00  0.03  0.00  0.00  0.00
  WS02006234WS02006232    1.00   0.00  0.00  0.00  1.00  0.00  0.00  0.00  0.10  0.00
  WS02006232WS02006231    1.00   0.00  0.00  0.00  1.00  0.00  0.00  0.00  0.00  0.00
  WS02006231WS02006230    1.00   0.00  0.00  0.00  0.76  0.00  0.24  0.00  0.00  0.00
  WS02006230WS02006229    1.00   0.00  0.00  0.00  1.00  0.00  0.00  0.00  0.01  0.00
  WS02006228WS02006109    1.00   0.00  0.00  0.00  1.00  0.00  0.00  0.00  0.00  0.00
  WS02006116WS02004401    1.00   0.01  0.00  0.00  0.99  0.00  0.00  0.00  0.01  0.00
  WS02006115WS02006116    1.00   0.01  0.00  0.00  0.98  0.00  0.00  0.01  0.01  0.00
  WS02006113WS02006111    1.00   0.00  0.00  0.00  0.02  0.98  0.00  0.00  0.13  0.00
  WS02006112WS02006115    1.00   0.01  0.00  0.00  0.99  0.00  0.00  0.00  0.00  0.00
  WS02006111WS02006112    1.00   0.01  0.00  0.00  0.99  0.00  0.00  0.00  0.90  0.00
  WS02006110WS02006113    1.00   0.00  0.00  0.00  1.00  0.00  0.00  0.00  0.00  0.00
  WS02006109WS02006110    1.00   0.00  0.00  0.00  1.00  0.00  0.00  0.00  0.00  0.00
  WS02004411WS02004412    1.00   0.04  0.00  0.00  0.96  0.00  0.00  0.00  0.00  0.00
  WS02004401WS02004402    1.00   0.01  0.00  0.00  0.99  0.00  0.00  0.00  0.01  0.00
  WS02004413WS02003067    1.00   0.05  0.01  0.00  0.00  0.00  0.95  0.00  0.00  0.00
  WS02004412WS02004413    1.00   0.04  0.00  0.00  0.95  0.00  0.00  0.00  0.00  0.00
  WS02004410WS02004411    1.00   0.04  0.00  0.00  0.96  0.00  0.00  0.00  0.00  0.00
  WS02004409WS02004410    1.00   0.04  0.00  0.00  0.96  0.00  0.00  0.00  0.00  0.00
  WS02004407WS02004409    1.00   0.04  0.00  0.00  0.95  0.00  0.00  0.00  0.81  0.00
  WS02004406WS02004407    1.00   0.00  0.04  0.00  0.96  0.00  0.00  0.00  0.00  0.00
  WS02004405WS02004406    1.00   0.00  0.00  0.00  1.00  0.00  0.00  0.00  0.02  0.00
  WS02004404WS02004405    1.00   0.00  0.00  0.00  1.00  0.00  0.00  0.00  0.00  0.00
  WS02004403WS02004404    1.00   0.00  0.01  0.00  0.99  0.00  0.00  0.00  0.02  0.00
  WS02004402WS02004403    1.00   0.01  0.00  0.00  0.99  0.00  0.00  0.00  0.00  0.00
  WS02004139WS02001211    1.00   0.00  0.00  0.00  1.00  0.00  0.00  0.00  0.00  0.00
  WS02004138WS02004139    1.00   0.00  0.00  0.00  1.00  0.00  0.00  0.00  1.00  0.00
  WS02003067WS02003066    1.00   0.05  0.00  0.00  0.94  0.00  0.00  0.00  0.00  0.00
  WS02001213WS02003059    1.00   0.00  0.00  0.00  1.00  0.00  0.00  0.00  0.00  0.00
  WS02001212WS02001213    1.00   0.00  0.00  0.00  0.93  0.00  0.07  0.00  0.00  0.00
  WS02001211WS02001212    1.00   0.00  0.00  0.00  1.00  0.00  0.00  0.00  0.00  0.00
  WS02003072WS02003073    1.00   0.00  0.00  0.00  0.00  0.00  0.00  1.00  0.00  0.00
  WS02003069WS02003072    1.00   0.00  0.00  0.00  1.00  0.00  0.00  0.00  0.09  0.00
  WS02003060WS02003069    1.00   0.00  0.00  0.00  0.99  0.01  0.00  0.00  0.07  0.00
  WS02003059WS02003060    1.00   0.00  0.00  0.00  1.00  0.00  0.00  0.00  0.00  0.00
  HS02004901HS02004770    1.00   0.03  0.00  0.00  0.97  0.00  0.00  0.00  0.00  0.00
  HS02004876HS02004881    1.00   0.01  0.00  0.00  0.94  0.05  0.00  0.00  0.00  0.00
  HS02004870HS02004876    1.00   0.00  0.00  0.00  1.00  0.00  0.00  0.00  0.95  0.00
  HS02004842HS02004848    1.00   0.00  0.03  0.00  0.97  0.00  0.00  0.00  0.55  0.00
  HS02004837HS02004842    1.00   0.00  0.00  0.00  1.00  0.00  0.00  0.00  0.11  0.00
  HS02004830HS02004837    1.00   0.00  0.00  0.00  1.00  0.00  0.00  0.00  0.99  0.00
  HS02004824HS02004830    1.00   0.00  0.00  0.00  1.00  0.00  0.00  0.00  0.00  0.00
  HS02004817HS02004824    1.00   0.00  0.00  0.00  1.00  0.00  0.00  0.00  1.00  0.00
  HS02004770HS02004777    1.00   0.00  0.03  0.00  0.97  0.00  0.00  0.00  0.02  0.00
  HS02004799HS02004480    1.00   0.00  0.01  0.00  0.97  0.00  0.02  0.00  0.00  0.00
  HS02004792HS02004799    1.00   0.00  0.00  0.00  1.00  0.00  0.00  0.00  0.98  0.00
  HS02004788HS02004792    1.00   0.00  0.00  0.00  1.00  0.00  0.00  0.00  0.98  0.00
  HS02004785HS02004788    1.00   0.00  0.00  0.00  1.00  0.00  0.00  0.00  0.00  0.00
  HS02004777HS02004785    1.00   0.00  0.00  0.00  1.00  0.00  0.00  0.00  0.12  0.00
  HS02004480HS02004478    1.00   0.03  0.00  0.00  0.75  0.00  0.00  0.22  0.00  0.00
  HS02004479HS02004480    1.00   0.01  0.00  0.00  0.99  0.00  0.00  0.00  0.11  0.00
  HS02004862HS02004870    1.00   0.00  0.00  0.00  1.00  0.00  0.00  0.00  0.03  0.00
  HS02004848HS02004852    1.00   0.03  0.00  0.00  0.97  0.00  0.00  0.00  0.62  0.00
  HS02004856HS02004862    1.00   0.00  0.04  0.00  0.96  0.00  0.00  0.00  0.83  0.00
  HS02004852HS02004856    1.00   0.03  0.00  0.00  0.97  0.00  0.00  0.00  0.85  0.00
  HS02004802HS02004478    1.00   0.03  0.00  0.00  0.97  0.00  0.00  0.00  0.02  0.00
  HS02004478WS02006287    1.00   0.03  0.00  0.00  0.81  0.15  0.00  0.00  0.64  0.00
  HS02004817HS02004807    1.00   0.00  0.03  0.00  0.97  0.00  0.00  0.00  0.01  0.00
  HS02004807HS02004802    1.00   0.03  0.00  0.00  0.97  0.00  0.00  0.00  0.00  0.00
  YS02001759YS02001757    1.00   0.00  0.00  0.00  1.00  0.00  0.00  0.00  0.16  0.00
  YS02001762YS02001759    1.00   0.00  0.00  0.00  1.00  0.00  0.00  0.00  0.03  0.00
  YS02001765YS02001762    1.00   0.00  0.00  0.00  1.00  0.00  0.00  0.00  0.13  0.00
  YS02001770YS02001767    1.00   0.00  0.00  0.00  1.00  0.00  0.00  0.00  0.00  0.00
  YS02001774YS02001770    1.00   0.00  0.03  0.00  0.97  0.00  0.00  0.00  0.02  0.00
  YS02001779YS02001774    1.00   0.00  0.00  0.00  1.00  0.00  0.00  0.00  0.18  0.00
  YS02001649YS02001757    1.00   0.00  0.00  0.00  1.00  0.00  0.00  0.00  0.16  0.00
  YS02001767YS02001765    1.00   0.00  0.00  0.00  1.00  0.00  0.00  0.00  0.00  0.00
  YS02006561YS02001783    1.00   0.04  0.00  0.00  0.31  0.65  0.00  0.00  0.47  0.00
  YS02001783YS02001784    1.00   0.00  0.04  0.00  0.96  0.00  0.00  0.00  0.01  0.00
  YS02001784YS02001785    1.00   0.00  0.00  0.00  1.00  0.00  0.00  0.00  0.17  0.00
  YS02001788YS02001790    1.00   0.00  0.00  0.00  0.33  0.67  0.00  0.00  0.39  0.00
  YS02001790YS02001791    1.00   0.00  0.00  0.00  0.30  0.70  0.00  0.00  0.50  0.00
  YS02001791YS02001793    1.00   0.00  0.00  0.00  0.34  0.66  0.00  0.00  0.03  0.00
  YS02001910YS02001907    1.00   0.00  0.00  0.00  0.99  0.00  0.00  0.01  0.12  0.00
  YS02001786YS02001788    1.00   0.00  0.00  0.00  0.31  0.69  0.00  0.00  0.00  0.00
  YS02001915YS02001910    1.00   0.00  0.00  0.00  0.99  0.01  0.00  0.00  0.15  0.00
  YS02001918YS02001915    1.00   0.00  0.00  0.00  0.99  0.00  0.00  0.00  0.55  0.00
  YS02001923YS02001920    1.00   0.00  0.00  0.00  1.00  0.00  0.00  0.00  0.84  0.00
  YS02001926YS02001923    1.00   0.00  0.02  0.00  0.11  0.00  0.88  0.00  0.00  0.00
  YS02001929YS02001926    1.00   0.00  0.03  0.00  0.97  0.00  0.00  0.00  0.77  0.00
  YS02001920YS02001918    1.00   0.00  0.00  0.00  1.00  0.00  0.00  0.00  0.00  0.00
  YS02001629YS02163301    1.00   0.03  0.00  0.00  0.97  0.00  0.00  0.00  0.00  0.00
  YS02001619YS02001622    1.00   0.03  0.00  0.00  0.97  0.00  0.00  0.00  0.00  0.00
  YS02001622YS02001625    1.00   0.03  0.00  0.00  0.97  0.00  0.00  0.00  0.04  0.00
  YS02001625YS02001629    1.00   0.03  0.01  0.00  0.95  0.00  0.01  0.00  0.00  0.00
  YS02163301YS02001633    1.00   0.00  0.03  0.00  0.97  0.00  0.00  0.00  0.00  0.00
  YS02163601YS02164001    1.00   0.00  0.02  0.00  0.98  0.00  0.00  0.00  0.00  0.00
  YS02164001YS02001641    1.00   0.00  0.02  0.00  0.98  0.00  0.00  0.00  0.06  0.00
  YS02001641YS02001644    1.00   0.00  0.00  0.00  1.00  0.00  0.00  0.00  0.00  0.00
  YS02001647YS02001649    1.00   0.00  0.04  0.00  0.96  0.00  0.00  0.00  0.01  0.00
  YS02006553YS02006556    1.00   0.00  0.00  0.00  1.00  0.00  0.00  0.00  0.03  0.00
  YS02006556YS02006558    1.00   0.00  0.00  0.00  1.00  0.00  0.00  0.00  0.00  0.00
  YSB6556YSB1171          1.00   0.01  0.02  0.00  0.97  0.00  0.00  0.00  0.00  0.00
  YS02001907YS02006553    1.00   0.00  0.01  0.00  0.99  0.00  0.00  0.00  0.00  0.00
  YS02006558YS02006561    1.00   0.04  0.00  0.00  0.10  0.86  0.00  0.00  0.47  0.00
  YS02001633YS02163601    1.00   0.00  0.00  0.00  1.00  0.00  0.00  0.00  0.15  0.00
  YS02001644YS02001647    1.00   0.00  0.04  0.00  0.96  0.00  0.00  0.00  0.00  0.00
  YS02001745YS02001748    1.00   0.00  0.00  0.00  0.93  0.00  0.00  0.07  0.04  0.00
  YS02001748YS02001751    1.00   0.00  0.00  0.00  0.98  0.02  0.00  0.00  0.15  0.00
  YS02001751YS02001754    1.00   0.00  0.00  0.00  0.96  0.00  0.00  0.04  0.02  0.00
  YS02001754YS02001757    1.00   0.00  0.00  0.00  1.00  0.00  0.00  0.00  0.18  0.00
  YS02001882YS02001884    1.00   0.03  0.00  0.00  0.97  0.00  0.00  0.00  0.00  0.00
  YS02001884YS02001887    1.00   0.01  0.01  0.00  0.98  0.00  0.00  0.00  0.00  0.00
  YS02001890YS02001895    1.00   0.00  0.03  0.00  0.97  0.00  0.00  0.00  0.00  0.00
  YS02001895YS02001898    1.00   0.03  0.00  0.00  0.96  0.00  0.01  0.00  0.00  0.00
  YS02001898YS02001901    1.00   0.03  0.00  0.00  0.97  0.00  0.00  0.00  0.01  0.00
  YS02001901YS02001904    1.00   0.03  0.00  0.00  0.97  0.00  0.00  0.00  0.00  0.00
  YS02001904YS02001907    1.00   0.00  0.03  0.00  0.97  0.00  0.00  0.00  0.00  0.00
  YS02001887YS02001890    1.00   0.00  0.00  0.00  0.99  0.00  0.01  0.00  0.00  0.00
  YS02001652YS02001649    1.00   0.00  0.00  0.00  1.00  0.00  0.00  0.00  0.16  0.00
  YS02001655YS02001652    1.00   0.00  0.00  0.00  0.96  0.00  0.00  0.04  0.02  0.00
  YS02001658YS02001655    1.00   0.00  0.03  0.00  0.95  0.02  0.00  0.00  0.08  0.00
  YS02001661YS02001658    1.00   0.03  0.00  0.00  0.93  0.04  0.00  0.00  0.09  0.00
  YS02001664YS02001661    1.00   0.03  0.00  0.00  0.93  0.04  0.00  0.00  0.19  0.00
  YSB1154YSB6556          1.00   0.03  0.00  0.00  0.97  0.00  0.00  0.00  0.01  0.00
  YSB1174YSB1171          1.00   0.01  0.01  0.00  0.98  0.00  0.00  0.00  0.00  0.00
  YSB1171HS02004479       1.00   0.01  0.00  0.00  0.99  0.00  0.00  0.00  0.10  0.00
  HS02004881HS02006253    1.00   0.01  0.00  0.00  0.81  0.01  0.00  0.17  0.61  0.00
  YS02001793JiankangQianchi    1.00   0.00  0.00  0.00  0.64  0.36  0.00  0.00  0.40  0.00
  YS02001757CaochengTiaoxuchi    1.00   0.00  0.05  0.00  0.95  0.00  0.00  0.00  0.00  0.00
  WSF200WS02003060        1.00   0.00  0.01  0.00  0.97  0.02  0.00  0.00  0.28  0.00
  1                       1.00   0.00  0.00  0.00  0.00  1.00  0.00  0.00  0.57  0.00
  
  
  *************************
  Conduit Surcharge Summary
  *************************
  
  ----------------------------------------------------------------------------
                                                           Hours        Hours 
                         --------- Hours Full --------   Above Full   Capacity
  Conduit                Both Ends  Upstream  Dnstream   Normal Flow   Limited
  ----------------------------------------------------------------------------
  WS02006229WS02006228        4.00      4.12      4.00      5.04         3.99
  WS02006256WS02006235        5.98      5.99      6.71      4.31         0.01
  WS02006253WS02006251        1.33      1.34      1.38      0.01         0.01
  WS02006252WS02006251        1.01      1.01      1.79      1.50         0.01
  WS02006251WS02006249        1.35      1.35      1.42      0.69         0.55
  WS02006249WS02006248        1.36      1.36      1.42      4.46         0.01
  WS02006248WS02006247        1.41      1.41      1.59      0.01         0.01
  WS02006247WS02006245        1.57      1.64      1.57      4.65         1.54
  WS02006245WS02006243        1.63      1.64      1.88      0.23         0.16
  WS02006243WS02006242        2.00      2.00      2.82      0.01         0.01
  WS02006242WS02006240        2.72      2.72      2.97      1.60         0.01
  WS02006240WS02006239        2.75      2.76      2.83      0.49         0.35
  WS02006239WS02006238        3.01      3.03      3.30      0.58         0.41
  WS02006238WS02006235        3.27      3.27      3.55      0.01         0.01
  WS02006235WS02006234        2.86      2.86      3.19      5.97         0.01
  WS02006234WS02006232        3.05      3.05      3.81      0.52         0.48
  WS02006232WS02006231        1.46      1.46      3.81      0.69         0.01
  WS02006231WS02006230        1.04      1.04      1.57      5.97         0.01
  WS02006230WS02006229        4.66      4.94      4.66      6.06         4.66
  WS02006228WS02006109        4.05      4.34      4.05      5.95         4.05
  WS02006116WS02004401        0.31      0.31      0.31      0.26         0.26
  WS02006115WS02006116        0.21      0.21      0.22      0.17         0.17
[...]
  YS02001765YS02001762        5.84      5.84      5.87      0.01         0.01
  YS02001770YS02001767        5.81      5.81      5.81      0.19         0.75
  YS02001774YS02001770        5.80      5.80      5.86      0.01         0.01
  YS02001779YS02001774        5.68      5.68      5.86      0.01         0.01
  YS02001649YS02001757        5.87      5.87      5.98      0.01         0.01
  YS02001767YS02001765        5.81      5.81      5.84      0.01         0.01
  YS02006561YS02001783        0.77      0.77      1.04      0.01         0.01
  YS02001783YS02001784        1.02      1.04      1.02      1.40         1.01
  YS02001784YS02001785        0.97      1.02      0.97      2.38         0.96
  YS02001788YS02001790        0.91      0.91      1.65      0.01         0.01
  YS02001790YS02001791        1.65      1.65      1.74      0.87         0.84
  YS02001791YS02001793        1.74      1.74      2.08      0.01         0.01
  YS02001910YS02001907        1.06      1.06      1.75      0.01         0.01
  YS02001786YS02001788        0.91      0.97      0.91      1.97         0.91
  YS02001915YS02001910        0.89      0.89      1.06      0.01         0.01
  YS02001918YS02001915        0.71      0.71      0.89      0.01         0.01
  YS02001923YS02001920        0.53      0.53      0.73      0.01         0.01
  YS02001920YS02001918        0.71      0.71      0.73      0.01         0.01
  YS02001629YS02163301        5.80      5.80      5.81      0.01         0.01
  YS02001619YS02001622        5.47      5.47      5.51      0.01         0.01
  YS02001622YS02001625        5.50      5.50      5.76      0.01         0.01
  YS02001625YS02001629        5.48      5.48      5.76      0.01         0.01
  YS02163301YS02001633        5.81      5.81      5.84      0.01         0.01
  YS02163601YS02164001        5.84      5.84      5.87      0.01         0.01
  YS02164001YS02001641        5.84      5.84      5.85      0.01         0.04
  YS02001641YS02001644        5.85      5.85      5.85      1.52         1.49
  YS02001647YS02001649        5.75      5.75      5.87      0.01         0.01
  YS02006553YS02006556        1.30      1.30      1.87      0.01         0.01
  YS02006556YS02006558        1.53      1.53      1.95      0.01         0.01
  YS02001907YS02006553        2.40      2.40      2.62      0.01         0.01
  YS02006558YS02006561        0.90      1.26      0.90      2.24         0.90
  YS02001633YS02163601        5.83      5.83      5.87      0.01         0.01
  YS02001644YS02001647        5.75      5.75      5.85      0.01         0.01
  YS02001745YS02001748        0.01      0.01      5.30      0.01         0.01
  YS02001748YS02001751        5.36      5.36      5.48      0.01         0.01
  YS02001751YS02001754        5.48      5.48      5.69      0.01         0.01
  YS02001754YS02001757        5.74      5.74      5.98      0.01         0.01
  YS02001882YS02001884        0.90      0.90      0.92      0.01         0.01
  YS02001884YS02001887        0.97      0.97      0.99      0.01         0.01
  YS02001890YS02001895        0.88      0.88      1.08      0.01         0.01
  YS02001895YS02001898        0.86      0.86      0.88      0.01         0.01
  YS02001898YS02001901        0.88      0.88      0.96      0.01         0.01
  YS02001901YS02001904        0.94      0.94      0.96      0.01         0.01
  YS02001904YS02001907        0.94      0.94      1.89      0.01         0.01
  YS02001887YS02001890        1.02      1.02      1.03      0.01         0.01
  YS02001652YS02001649        5.76      5.76      5.87      0.01         0.01
  YS02001655YS02001652        5.50      5.50      5.73      0.01         0.01
  YS02001658YS02001655        5.33      5.33      5.50      0.01         0.01
  YS02001661YS02001658        0.24      0.24      5.33      0.01         0.01
  YS02001664YS02001661        0.01      0.01      1.09      0.01         0.01
  HS02004881HS02006253        0.01      0.01      0.76      0.01         0.01
  YS02001793JiankangQianchi        1.99      1.99      3.87      0.01         0.01
  YS02001757CaochengTiaoxuchi        5.21      5.21      5.98      0.01         0.01
  
  
  ***************
  Pumping Summary
  ***************
  
  ---------------------------------------------------------------------------------------------------------
                                                  Min       Avg       Max     Total     Power    % Time Off
                        Percent   Number of      Flow      Flow      Flow    Volume     Usage    Pump Curve
  Pump                 Utilized   Start-Ups       LPS       LPS       LPS  10^6 ltr     Kw-hr    Low   High
  ---------------------------------------------------------------------------------------------------------
  CC-Pump-1               63.83           1      0.00    186.43    200.00     3.300      2.92    0.0    0.0
  CC-Pump-2               31.91           6      0.00     89.17    200.00     0.960      1.18    0.0    0.0
  JK-Pump-1               61.70           5      0.00    220.95    300.00     3.726     58.23    0.0    0.0
  JK-Pump-2               55.32           5      0.00    389.73    683.00     6.126     90.35    0.0   96.1
  XR-Pump-1               95.74           3      0.00     93.53     95.00     2.451     22.34    0.0    0.0
  XR-Pump-2               95.74           3      0.00     93.53     95.00     2.451     22.34    0.0    0.0
  XR-Pump-3               95.74           3      0.00     93.53     95.00     2.451     22.34    0.0    0.0
  XR-Pump-4               95.74           3      0.00     93.53     95.00     2.451     22.34    0.0    0.0
  
  
  ***************************
  Link Pollutant Load Summary
  ***************************
  
  ------------------------------------------------------------------------------------------
                                 COD            SS            TN            TP         NH4-N
  Link                            kg            kg            kg            kg            kg
  ------------------------------------------------------------------------------------------
  WS02003066WSF200           816.833      1500.819        21.722         1.904        11.467
  WS02006287WS02006284       268.072       498.240         9.347         0.943         5.214
  WS02006284WS02006280       268.560       499.026         9.394         0.949         5.244
  WS02006280WS02006229       268.525       498.960         9.392         0.949         5.242
  WS02006229WS02006228       820.712      1507.897        21.346         1.842        11.202
  WS02006256WS02006235       190.072       346.911         4.281         0.337         2.177
  WS02006253WS02006251        51.739        99.520         1.202         0.093         0.604
  WS02006252WS02006251       353.094       640.353         7.380         0.529         3.626
  WS02006251WS02006249       397.452       726.630         8.439         0.613         4.163
  WS02006249WS02006248       371.685       679.024         7.895         0.573         3.895
  WS02006248WS02006247       371.481       678.693         7.893         0.573         3.894
  WS02006247WS02006245       371.002       677.838         7.882         0.572         3.888
  WS02006245WS02006243       370.466       676.964         7.866         0.571         3.880
  WS02006243WS02006242       370.003       676.149         7.859         0.570         3.877
  WS02006242WS02006240       369.258       674.862         7.841         0.569         3.868
  WS02006240WS02006239       369.444       675.307         7.843         0.569         3.868
  WS02006239WS02006238       370.493       677.191         7.876         0.572         3.887
  WS02006238WS02006235       370.909       677.808         7.891         0.574         3.896
  WS02006235WS02006234       556.669      1016.840        12.067         0.902         6.017
  WS02006234WS02006232       555.960      1015.579        12.056         0.902         6.013
  WS02006232WS02006231       555.183      1014.193        12.038         0.900         6.004
  WS02006231WS02006230       554.600      1013.130        12.027         0.900         5.999
  WS02006230WS02006229       553.294      1010.886        11.990         0.897         5.979
  WS02006228WS02006109       819.518      1505.811        21.312         1.839        11.183
  WS02006116WS02004401       829.447      1523.159        22.052         1.931        11.639
  WS02006115WS02006116       830.894      1525.702        22.094         1.935        11.662
  WS02006113WS02006111       824.866      1513.929        22.025         1.931        11.637
  WS02006112WS02006115       832.267      1528.110        22.141         1.939        11.688
  WS02006111WS02006112       824.259      1512.834        22.011         1.930        11.630
  WS02006110WS02006113       825.434      1514.908        22.045         1.933        11.648
  WS02006109WS02006110       826.699      1517.099        22.092         1.938        11.675
  WS02004411WS02004412       819.968      1506.338        21.838         1.915        11.532
  WS02004401WS02004402       827.997      1520.615        22.004         1.926        11.612
  WS02004413WS02003067       817.380      1501.791        21.737         1.905        11.474
  WS02004412WS02004413       818.884      1504.422        21.805         1.912        11.514
  WS02004410WS02004411       820.855      1507.900        21.864         1.918        11.546
  WS02004409WS02004410       821.788      1509.544        21.893         1.920        11.562
  WS02004407WS02004409       822.559      1510.900        21.914         1.922        11.573
  WS02004406WS02004407       822.781      1511.283        21.917         1.922        11.574
  WS02004405WS02004406       824.555      1514.349        21.995         1.930        11.619
  WS02004404WS02004405       825.777      1516.551        22.004         1.930        11.620
  WS02004403WS02004404       825.426      1516.103        21.921         1.919        11.567
  WS02004402WS02004403       826.643      1518.243        21.962         1.923        11.590
  WS02004139WS02001211      1386.289      2284.276       115.210        14.108        71.146
  WS02004138WS02004139      1392.847      2295.103       115.741        14.173        71.473
  WS02003067WS02003066       817.015      1501.147        21.729         1.904        11.470
  WS02001213WS02003059      1419.365      2336.477       118.599        14.535        73.274
  WS02001212WS02001213      1428.997      2352.277       119.410        14.634        73.775
  WS02001211WS02001212      1430.537      2354.795       119.541        14.651        73.857
  WS02003072WS02003073      2336.543      3996.894       150.267        17.687        90.970
  WS02003069WS02003072      2341.538      4005.185       150.654        17.734        91.208
  WS02003060WS02003069      2344.182      4009.675       150.821        17.753        91.309
  WS02003059WS02003060      1416.487      2331.693       118.375        14.508        73.136
  HS02004901HS02004770        10.271        19.478         0.196         0.015         0.091
  HS02004876HS02004881        37.319        72.583         0.843         0.062         0.416
  HS02004870HS02004876        28.161        54.630         0.678         0.051         0.338
  HS02004842HS02004848         5.467        10.276         0.115         0.008         0.053
  HS02004837HS02004842        10.072        17.581         0.584         0.067         0.347
  HS02004830HS02004837        65.639       112.705         4.557         0.546         2.785
  HS02004824HS02004830        66.391       113.909         4.628         0.555         2.830
  HS02004817HS02004824        88.209       156.981         5.083         0.584         3.051
  HS02004770HS02004777        39.297        75.469         0.819         0.055         0.377
  HS02004799HS02004480       131.418       245.387         3.680         0.335         1.933
  HS02004792HS02004799       119.092       220.675         3.497         0.327         1.853
  HS02004788HS02004792        68.399       126.864         2.388         0.235         1.309
  HS02004785HS02004788        40.736        77.766         0.969         0.074         0.471
  HS02004777HS02004785        40.062        76.672         0.909         0.067         0.434
  HS02004480HS02004478       165.959       312.612         4.243         0.375         2.195
  HS02004479HS02004480        38.144        72.973         0.884         0.079         0.462
  HS02004862HS02004870        21.016        40.119         0.536         0.043         0.270
  HS02004848HS02004852         8.058        15.280         0.167         0.011         0.077
  HS02004856HS02004862        14.072        27.342         0.284         0.019         0.133
  HS02004852HS02004856         8.065        15.291         0.167         0.011         0.077
  HS02004802HS02004478       102.890       186.896         5.163         0.576         3.055
  HS02004478WS02006287       268.268       498.568         9.363         0.945         5.224
  HS02004817HS02004807        86.890       154.866         4.957         0.568         2.972
  HS02004807HS02004802       103.117       187.250         5.194         0.580         3.075
  YS02001759YS02001757       343.061       625.002         6.870         0.477         3.358
  YS02001762YS02001759       136.075       247.461         2.971         0.211         1.479
  YS02001765YS02001762       135.946       247.535         2.991         0.213         1.492
  YS02001770YS02001767       134.113       245.004         2.755         0.180         1.339
  YS02001774YS02001770       170.988       328.015         3.331         0.218         1.609
  YS02001779YS02001774       170.096       326.184         3.420         0.232         1.671
  YS02001649YS02001757       301.304       535.504         6.054         0.422         2.904
  YS02001767YS02001765       136.121       248.025         3.012         0.214         1.504
  YS02006561YS02001783       935.968      1716.456        19.831         1.488         9.897
  YS02001783YS02001784       935.831      1716.234        19.827         1.488         9.895
  YS02001784YS02001785       943.133      1727.927        20.539         1.577        10.340
  YS02001788YS02001790       943.678      1728.799        20.610         1.586        10.386
  YS02001790YS02001791       944.705      1730.471        20.710         1.599        10.448
  YS02001791YS02001793       944.591      1730.257        20.706         1.598        10.446
  YS02001910YS02001907       330.092       599.184         8.233         0.642         4.254
  YS02001786YS02001788       943.303      1728.203        20.566         1.581        10.358
  YS02001915YS02001910       330.188       599.340         8.189         0.636         4.224
  YS02001918YS02001915       159.916       277.954         4.661         0.434         2.538
  YS02001923YS02001920       137.639       241.460         2.676         0.188         1.303
  YS02001926YS02001923       136.671       239.882         2.594         0.178         1.253
  YS02001929YS02001926       136.168       239.024         2.555         0.174         1.228
  YS02001920YS02001918       157.900       273.989         4.593         0.427         2.500
  YS02001629YS02163301       103.513       183.414         2.171         0.140         1.012
  YS02001619YS02001622       146.392       262.926         3.031         0.197         1.414
  YS02001622YS02001625       145.231       261.089         3.003         0.195         1.401
  YS02001625YS02001629       104.610       185.232         2.195         0.142         1.023
  YS02163301YS02001633       103.232       182.940         2.164         0.140         1.009
  YS02163601YS02164001       362.025       646.174         7.116         0.502         3.403
  YS02164001YS02001641       361.526       645.329         7.096         0.500         3.392
  YS02001641YS02001644       361.762       645.652         7.095         0.500         3.391
  YS02001647YS02001649       351.271       632.739         6.961         0.485         3.322
  YS02006553YS02006556       657.515      1200.169        14.234         1.095         7.179
  YS02006556YS02006558       657.457      1200.047        14.202         1.090         7.158
  YSB6556YSB1171              21.951        42.196         0.451         0.038         0.229
  YS02001907YS02006553       657.651      1200.445        14.248         1.097         7.188
  YS02006558YS02006561       936.000      1716.509        19.831         1.488         9.897
  YS02001633YS02163601       362.718       647.247         7.095         0.498         3.387
  YS02001644YS02001647       357.377       643.701         7.067         0.493         3.372
  YS02001745YS02001748       210.002       386.354         4.721         0.329         2.356
  YS02001748YS02001751       208.096       382.738         4.765         0.339         2.393
  YS02001751YS02001754       207.106       381.112         4.746         0.338         2.384
  YS02001754YS02001757       207.866       382.253         4.910         0.360         2.491
  YS02001882YS02001884         2.454         4.220         0.050         0.004         0.025
  YS02001884YS02001887         7.076        12.543         0.138         0.011         0.068
  YS02001890YS02001895       389.431       720.592         7.188         0.539         3.508
  YS02001895YS02001898       389.236       720.313         7.182         0.539         3.504
  YS02001898YS02001901       389.018       719.941         7.177         0.538         3.502
  YS02001901YS02001904       388.868       719.729         7.184         0.540         3.507
  YS02001904YS02001907       389.069       720.027         7.237         0.547         3.541
  YS02001887YS02001890       390.244       721.813         7.243         0.546         3.541
  YS02001652YS02001649       150.485       275.582         3.067         0.221         1.438
  YS02001655YS02001652       150.970       276.378         3.080         0.222         1.445
  YS02001658YS02001655       150.373       275.438         2.991         0.210         1.387
  YS02001661YS02001658       154.709       283.237         3.078         0.216         1.427
  YS02001664YS02001661       176.307       319.165         3.558         0.249         1.647
  YSB1154YSB6556              21.533        41.529         0.402         0.032         0.198
  YSB1174YSB1171              14.654        28.290         0.298         0.024         0.149
  YSB1171HS02004479           38.102        72.907         0.887         0.079         0.465
  HS02004881HS02006253        42.445        82.939         0.929         0.067         0.456
  YS02001793JiankangQianchi       948.864      1737.225        20.891         1.618        10.553
  YS02001757CaochengTiaoxuchi       612.961      1099.208        12.966         0.924         6.370
  WSF200WS02003060           817.000      1501.096        21.743         1.906        11.480
  1                         2342.341      4005.967       150.911        17.769        91.376
  CC-Pump-1                  273.302       495.731         5.709         0.409         2.804
  CC-Pump-2                   79.829       144.687         1.672         0.120         0.822
  JK-Pump-1                  242.318       444.857         5.378         0.420         2.725
  JK-Pump-2                  468.925       873.371         9.754         0.732         4.858
  XR-Pump-1                  349.183       575.366        29.018         3.553        17.920
  XR-Pump-2                  349.183       575.366        29.018         3.553        17.920
  XR-Pump-3                  349.183       575.366        29.018         3.553        17.920
  XR-Pump-4                  349.183       575.366        29.018         3.553        17.920
  

  Analysis begun on:  Tue Jul 13 18:06:44 2021
  Analysis ended on:  Tue Jul 13 18:06:48 2021
  Total elapsed time: 00:00:04