
  EPA STORM WATER MANAGEMENT MODEL - VERSION 5.1 (Build 5.3.0.dev0)
  --------------------------------------------------------------

  WARNING 04: minimum elevation drop used for Conduit WS02004404WS02004405
  WARNING 03: negative offset ignored for Link YS02001904YS02001907
  
  *********************************************************
  NOTE: The summary statistics displayed in this report are
  based on results found at every computational time step,  
  not just on results from each reporting time step.
  *********************************************************
  
  ****************
  Analysis Options
  ****************
  Flow Units ............... LPS
  Process Models:
    Rainfall/Runoff ........ YES
    RDII ................... NO
    Snowmelt ............... NO
    Groundwater ............ NO
    Flow Routing ........... YES
    Ponding Allowed ........ NO
    Water Quality .......... YES
  Infiltration Method ...... HORTON
  Flow Routing Method ...... DYNWAVE
  Surcharge Method ......... EXTRAN
  Starting Date ............ 08/28/2015 08:00:00
  Ending Date .............. 08/28/2015 15:50:00
  Antecedent Dry Days ...... 8.0
  Report Time Step ......... 00:01:00
  Wet Time Step ............ 00:01:00
  Dry Time Step ............ 00:01:00
  Routing Time Step ........ 5.00 sec
  Variable Time Step ....... YES
  Maximum Trials ........... 8
  Number of Threads ........ 4
  Head Tolerance ........... 0.001500 m
  
  
  **************************        Volume         Depth
  Runoff Quantity Continuity     hectare-m            mm
  **************************     ---------       -------
  Total Precipitation ......         5.556        12.164
  Evaporation Loss .........         0.000         0.000
  Infiltration Loss ........         1.002         2.194
  Surface Runoff ...........         3.688         8.075
  Final Storage ............         0.866         1.897
  Continuity Error (%) .....        -0.019
  
  
  **************************           COD            SS            TN            TP         NH4-N
  Runoff Quality Continuity             kg            kg            kg            kg            kg
  **************************    ----------    ----------    ----------    ----------    ----------
  Initial Buildup ..........     41378.656     70582.865      1804.177       168.684      1032.807
  Surface Buildup ..........        19.275        34.271         2.335         0.213         1.362
  Wet Deposition ...........         0.000         0.000         0.000         0.000         0.000
  Sweeping Removal .........         0.000         0.000         0.000         0.000         0.000
  Infiltration Loss ........        84.023       157.502         1.599         0.111         0.761
  BMP Removal ..............         0.000         0.000         0.000         0.000         0.000
  Surface Runoff ...........      3122.074      5752.154        60.620         4.098        28.771
  Remaining Buildup ........     38190.779     64705.500      1744.271       164.686      1004.628
  Continuity Error (%) .....         0.003         0.003         0.001         0.001         0.001
  
  
  **************************        Volume        Volume
  Flow Routing Continuity        hectare-m      10^6 ltr
  **************************     ---------     ---------
  Dry Weather Inflow .......         0.616         6.165
  Wet Weather Inflow .......         3.687        36.870
  Groundwater Inflow .......         0.000         0.000
  RDII Inflow ..............         0.000         0.000
  External Inflow ..........         0.102         1.024
  External Outflow .........         2.018        20.183
  Flooding Loss ............         1.970        19.704
  Evaporation Loss .........         0.000         0.000
  Exfiltration Loss ........         0.000         0.000
  Initial Stored Volume ....         0.076         0.761
  Final Stored Volume ......         0.620         6.196
  Continuity Error (%) .....        -2.820
  
  
  **************************           COD            SS            TN            TP         NH4-N
  Quality Routing Continuity            kg            kg            kg            kg            kg
  **************************    ----------    ----------    ----------    ----------    ----------
  Dry Weather Inflow .......      1541.201      2465.922       147.955        18.494        92.472
  Wet Weather Inflow .......      3121.234      5750.714        60.602         4.097        28.763
  Groundwater Inflow .......         0.000         0.000         0.000         0.000         0.000
  RDII Inflow ..............         0.000         0.000         0.000         0.000         0.000
  External Inflow ..........       183.418       293.469        17.608         2.201        11.005
  External Outflow .........      2354.566      4026.142       152.053        17.912        92.087
  Flooding Loss ............      1821.633      3341.939        47.587         4.170        25.091
  Exfiltration Loss ........         0.000         0.000         0.000         0.000         0.000
  Mass Reacted .............         0.000         0.000         0.000         0.000         0.000
  Initial Stored Mass ......         0.000         0.000         0.000         0.000         0.000
  Final Stored Mass ........       510.696       867.761        22.951         2.448        13.295
  Continuity Error (%) .....         3.280         3.223         1.581         1.058         1.336
  
  
  *************************
  Highest Continuity Errors
  *************************
  Node HS02004842 (14.53%)
  Node JK-storage (-12.54%)
  Node YS02001884 (10.22%)
  Node YSB1171 (2.74%)
  Node HS02004817 (2.73%)
  
  
  ***************************
  Time-Step Critical Elements
  ***************************
  Link WS02006252WS02006251 (64.09%)
  Link WS02006280WS02006229 (9.56%)
  Link WS02006238WS02006235 (5.37%)
  Link YS02001793JiankangQianchi (4.55%)
  Link WS02004404WS02004405 (3.19%)
  
  
  ********************************
  Highest Flow Instability Indexes
  ********************************
  Link YS02163601YS02164001 (46)
  Link YS02163301YS02001633 (44)
  Link YS02001629YS02163301 (44)
  Link WS02006113WS02006111 (44)
  Link YS02001619YS02001622 (43)
  
  
  *************************
  Routing Time Step Summary
  *************************
  Minimum Time Step           :     0.50 sec
  Average Time Step           :     1.16 sec
  Maximum Time Step           :     5.00 sec
  Percent in Steady State     :    -0.00
  Average Iterations per Step :     4.74
  Percent Not Converging      :    23.11
  
  
  ***************************
  Subcatchment Runoff Summary
  ***************************
  
  ------------------------------------------------------------------------------------------------------------------------------
                            Total      Total      Total      Total     Imperv       Perv      Total       Total     Peak  Runoff
                           Precip      Runon       Evap      Infil     Runoff     Runoff     Runoff      Runoff   Runoff   Coeff
  Subcatchment                 mm         mm         mm         mm         mm         mm         mm    10^6 ltr      LPS
  ------------------------------------------------------------------------------------------------------------------------------
  sub0                      12.16       0.00       0.00       0.65      11.27       0.20      11.47        0.01     1.99   0.943
  sub1                      12.16       0.00       0.00       1.12      10.73       0.22      10.95        0.07    14.96   0.900
  sub2                      12.16       0.00       0.00       4.23       7.58       0.27       7.85        0.07    15.08   0.646
  sub3                      12.16       0.00       0.00       4.29       7.54       0.21       7.75        0.17    34.61   0.637
  sub4                      12.16       0.00       0.00       1.19      10.57       0.14      10.71        0.22    42.34   0.881
  sub5                      12.16       0.00       0.00       0.69      11.21       0.16      11.38        0.13    26.18   0.935
  sub7                      12.16       0.00       0.00       0.88      11.01       0.22      11.22        0.04     7.95   0.923
  sub8                      12.16       0.00       0.00       0.89      11.00       0.21      11.20        0.07    14.89   0.921
  sub9                      12.16       0.00       0.00       0.89      10.99       0.21      11.20        0.05    11.18   0.921
  sub10                     12.16       0.00       0.00       0.79      11.10       0.18      11.28        0.12    25.49   0.928
  sub11                     12.16       0.00       0.00       0.78      11.12       0.19      11.31        0.13    27.35   0.930
  sub12                     12.16       0.00       0.00       1.27      10.53       0.31      10.85        0.09    20.52   0.892
  sub14                     12.16       0.00       0.00       0.89      10.99       0.20      11.20        0.11    22.08   0.920
  sub15                     12.16       0.00       0.00       3.28       8.45       0.37       8.82        0.15    32.49   0.725
  sub16                     12.16       0.00       0.00       3.51       8.11       0.50       8.61        0.09    20.36   0.708
  sub17                     12.16       0.00       0.00       3.41       8.23       0.48       8.71        0.07    16.72   0.716
  sub22                     12.16       0.00       0.00       4.80       6.89       0.43       7.32        0.46   102.62   0.602
  sub23                     12.16       0.00       0.00       4.05       7.62       0.45       8.07        0.38    85.35   0.663
  sub60                     12.16       0.00       0.00       1.42       8.82       0.04       8.86        2.69   336.84   0.729
  sub61                     12.16       0.00       0.00       2.01       8.94       0.06       9.00        2.78   399.45   0.740
  sub62                     12.16       0.00       0.00       0.92       9.73       0.05       9.78        3.01   415.79   0.804
  sub63                     12.16       0.00       0.00       3.46       7.82       0.06       7.88        2.39   361.21   0.648
  sub64                     12.16       0.00       0.00       1.78       8.47       0.04       8.51        2.59   320.97   0.699
  sub65                     12.16       0.00       0.00       1.54       8.61       0.04       8.65        2.66   326.54   0.711
  sub66                     12.16       0.00       0.00       3.49       7.26       0.04       7.30        2.24   290.53   0.600
  sub67                     12.16       0.00       0.00       0.91      10.24       0.07      10.31        3.18   494.23   0.848
  sub68                     12.16       0.00       0.00       1.64       9.40       0.06       9.46        2.91   432.52   0.778
  sub69                     12.16       0.00       0.00       1.73       9.72       0.09       9.82        2.29   383.95   0.807
  sub70                     12.16      10.02       0.00       6.98      13.09       0.56      13.65        3.12   394.93   0.615
  sub71                     12.16       0.00       0.00       0.93       9.48       0.05       9.53        2.25   296.34   0.783
  sub72                     12.16       0.00       0.00       0.83       7.62       0.02       7.64        1.56   151.13   0.628
  1                         12.16      13.29       0.00       1.37      14.64       3.94      18.57        4.36   399.24   0.730
  2                         12.16       0.00       0.00       3.02       2.89       1.65       4.55        1.82   245.52   0.374
  
  
  ****************************
  Subcatchment Washoff Summary
  ****************************
  
  ------------------------------------------------------------------------------------------
                                 COD            SS            TN            TP         NH4-N
  Subcatchment                    kg            kg            kg            kg            kg
  ------------------------------------------------------------------------------------------
  sub0                         2.176         4.147         0.037         0.003         0.018
  sub1                         9.268        18.138         0.173         0.012         0.083
  sub2                         5.563        10.570         0.119         0.008         0.054
  sub3                        13.747        25.918         0.288         0.019         0.132
  sub4                        21.530        42.606         0.429         0.026         0.205
  sub5                        21.300        41.103         0.378         0.029         0.183
  sub7                         4.748         9.424         0.090         0.006         0.043
  sub8                         7.142        14.500         0.143         0.008         0.069
  sub9                         6.100        12.212         0.118         0.007         0.057
  sub10                       17.532        34.266         0.321         0.023         0.155
  sub11                       17.086        33.770         0.320         0.022         0.154
  sub12                       14.392        27.890         0.260         0.019         0.125
  sub14                       13.021        25.823         0.247         0.016         0.119
  sub15                       16.182        30.744         0.313         0.023         0.146
  sub16                       10.318        19.555         0.197         0.015         0.092
  sub17                        9.471        17.789         0.175         0.014         0.082
  sub22                       48.821        90.813         0.932         0.070         0.434
  sub23                       29.138        56.181         0.627         0.041         0.287
  sub60                      203.703       376.194         4.083         0.248         1.956
  sub61                      251.300       461.579         4.699         0.320         2.261
  sub62                      262.762       491.326         5.157         0.324         2.474
  sub63                      185.047       334.594         3.739         0.261         1.731
  sub64                      253.867       452.095         4.687         0.339         2.235
  sub65                      260.106       465.192         4.834         0.344         2.309
  sub66                      146.558       263.078         3.037         0.197         1.417
  sub67                      388.205       718.566         6.963         0.510         3.363
  sub68                      276.714       513.393         5.318         0.356         2.539
  sub69                      247.676       464.012         4.658         0.325         2.225
  sub70                      413.256       778.342         8.287         0.572         3.877
  sub71                      173.740       327.842         3.597         0.206         1.720
  sub72                      136.329       239.316         2.558         0.174         1.230
  1                          280.724       531.718         5.751         0.398         2.660
  2                           35.485        61.812         1.030         0.062         0.437
  ------------------------------------------------------------------------------------------
  System                    3783.006      6994.507        73.566         4.996        34.873
  
  
  ******************
  Node Depth Summary
  ******************
  
  ---------------------------------------------------------------------------------
                                 Average  Maximum  Maximum  Time of Max    Reported
                                   Depth    Depth      HGL   Occurrence   Max Depth
  Node                 Type       Meters   Meters   Meters  days hr:min      Meters
  ---------------------------------------------------------------------------------
  WS02001211           JUNCTION     0.77     0.83     5.67     0  03:09        0.83
  WS02001212           JUNCTION     0.49     0.55     5.62     0  03:08        0.55
  WS02001213           JUNCTION     0.73     0.83     5.59     0  03:08        0.83
  WS02003069           JUNCTION     0.53     0.68     5.27     0  03:07        0.68
  WS02003072           JUNCTION     0.59     0.73     5.10     0  03:07        0.73
  WS02003073           JUNCTION     0.36     0.46     4.52     0  03:08        0.46
  WS02003060           JUNCTION     0.47     0.60     5.53     0  03:06        0.60
  WS02003066           JUNCTION     0.26     0.36     5.92     0  03:05        0.36
  WS02003059           JUNCTION     0.78     0.88     5.57     0  03:07        0.88
  WS02003067           JUNCTION     0.63     0.79     6.11     0  03:05        0.79
  WS02004401           JUNCTION     0.75     1.14     7.14     0  03:02        1.13
  WS02004402           JUNCTION     0.78     1.14     7.10     0  03:02        1.13
  WS02004403           JUNCTION     0.80     1.12     7.05     0  03:02        1.12
  WS02004404           JUNCTION     0.87     1.18     7.03     0  03:02        1.18
  WS02004406           JUNCTION     0.87     1.12     6.95     0  03:03        1.12
  WS02004409           JUNCTION     0.57     0.87     6.64     0  03:04        0.87
  WS02004410           JUNCTION     0.59     0.87     6.59     0  03:04        0.87
  WS02004411           JUNCTION     0.60     0.86     6.54     0  03:04        0.86
  WS02004412           JUNCTION     0.61     0.85     6.49     0  03:05        0.85
  WS02004413           JUNCTION     0.77     0.98     6.45     0  03:05        0.98
  WS02004405           JUNCTION     0.87     1.15     7.00     0  03:03        1.15
  WS02006109           JUNCTION     0.84     1.31     7.93     0  03:02        1.30
  WS02006110           JUNCTION     0.82     1.15     7.74     0  03:02        1.14
  WS02006111           JUNCTION     0.25     0.66     7.36     0  03:03        0.66
  WS02006112           JUNCTION     0.93     1.42     7.30     0  03:02        1.41
  WS02006113           JUNCTION     0.38     0.65     7.54     0  03:02        0.65
  WS02006115           JUNCTION     0.65     1.09     7.23     0  03:03        1.09
  WS02006116           JUNCTION     0.73     1.15     7.19     0  03:02        1.14
  WS02006230           JUNCTION     0.87     1.52     8.27     0  03:02        1.52
  WS02006231           JUNCTION     0.61     1.22     8.34     0  03:02        1.20
  WS02006232           JUNCTION     0.75     1.37     8.40     0  03:02        1.36
  WS02006234           JUNCTION     0.70     1.32     8.48     0  03:02        1.31
  WS02006235           JUNCTION     0.74     1.37     8.54     0  03:02        1.36
  WS02006238           JUNCTION     0.77     1.39     8.54     0  03:02        1.38
  WS02006240           JUNCTION     0.68     1.28     8.57     0  03:01        1.27
  WS02006242           JUNCTION     0.74     1.33     8.60     0  03:02        1.32
  WS02006243           JUNCTION     0.62     1.21     8.63     0  03:02        1.20
  WS02006245           JUNCTION     0.60     1.17     8.65     0  03:02        1.16
  WS02006247           JUNCTION     0.61     1.17     8.67     0  03:00        1.16
  WS02006248           JUNCTION     0.55     1.09     8.68     0  03:01        1.09
  WS02006249           JUNCTION     0.57     1.09     8.69     0  02:59        1.09
  WS02006239           JUNCTION     0.73     1.35     8.56     0  03:02        1.34
  WS02006251           JUNCTION     0.55     1.27     8.94     0  07:22        1.21
  WS02006252           JUNCTION     0.33     0.83     9.07     0  07:22        0.77
  WS02006253           JUNCTION     0.58     1.34     8.99     0  07:22        1.24
  WS02006256           JUNCTION     1.73     2.35     9.28     0  00:00        2.35
  WS02004138           JUNCTION     0.19     0.20     7.45     0  00:00        0.19
  WS02004139           JUNCTION     0.72     0.77     5.68     0  03:09        0.77
  WS02004407           JUNCTION     0.25     0.37     6.68     0  03:03        0.37
  WS02006228           JUNCTION     0.86     1.44     8.09     0  03:02        1.43
  WS02006229           JUNCTION     0.85     1.49     8.18     0  03:02        1.48
  WS02006280           JUNCTION     0.07     0.20     8.47     0  03:02        0.20
  WS02006284           JUNCTION     0.37     0.56     8.96     0  03:02        0.56
  WS02006287           JUNCTION     0.10     0.30     9.25     0  03:01        0.30
  WSF200               JUNCTION     0.25     0.40     5.64     0  03:05        0.40
  HS02004901           JUNCTION     0.13     0.29    10.12     0  03:01        0.29
  HS02004881           JUNCTION     0.01     0.04     9.07     0  03:01        0.04
  HS02004876           JUNCTION     0.05     0.12     9.15     0  03:01        0.12
  HS02004870           JUNCTION     0.02     0.07     9.35     0  03:01        0.07
  HS02004862           JUNCTION     0.02     0.08     9.46     0  03:01        0.08
  HS02004856           JUNCTION     0.08     0.13     9.55     0  03:01        0.13
  HS02004852           JUNCTION     0.01     0.05     9.56     0  03:01        0.05
  HS02004848           JUNCTION     0.01     0.05     9.65     0  03:01        0.05
  HS02004842           JUNCTION     0.34     0.38     9.65     0  03:01        0.38
  HS02004837           JUNCTION     0.03     0.07     9.65     0  03:01        0.07
  HS02004830           JUNCTION     0.04     0.08     9.55     0  03:01        0.08
  HS02004824           JUNCTION     0.02     0.06     9.47     0  03:01        0.06
  HS02004817           JUNCTION     0.45     0.61     9.45     0  03:01        0.61
  HS02004807           JUNCTION     0.13     0.28     9.45     0  03:01        0.28
  HS02004802           JUNCTION     0.17     0.31     9.44     0  03:01        0.31
  HS02004799           JUNCTION     0.13     0.35     9.56     0  03:01        0.35
  HS02004792           JUNCTION     0.04     0.15     9.67     0  03:01        0.15
  HS02004788           JUNCTION     0.03     0.11    10.01     0  03:01        0.11
  HS02004785           JUNCTION     0.05     0.18    10.09     0  03:01        0.18
  HS02004777           JUNCTION     0.15     0.31    10.11     0  03:01        0.31
  HS02004770           JUNCTION     0.12     0.29    10.12     0  03:01        0.29
  HS02004480           JUNCTION     0.09     0.28     9.52     0  03:01        0.28
  HS02004479           JUNCTION     0.12     0.32     9.52     0  03:01        0.32
  HS02004478           JUNCTION     0.07     0.20     9.42     0  03:01        0.20
  YS02001745           JUNCTION     0.74     0.92     8.44     0  03:00        0.92
  YS02001748           JUNCTION     1.14     1.58     8.66     0  02:27        1.35
  YS02001751           JUNCTION     1.32     1.68     8.56     0  02:27        1.54
  YS02001754           JUNCTION     1.57     1.83     8.44     0  02:58        1.82
  YS02001762           JUNCTION     1.77     2.04     8.44     0  02:58        2.02
  YS02001765           JUNCTION     1.73     1.99     8.44     0  02:58        1.97
  YS02001767           JUNCTION     1.69     1.94     8.43     0  02:58        1.93
  YS02001770           JUNCTION     1.68     1.95     8.44     0  02:18        1.91
  YS02001774           JUNCTION     1.75     2.02     8.45     0  02:18        1.97
  YS02001779           JUNCTION     1.50     1.68     8.37     0  02:18        1.68
  YS02001882           JUNCTION     0.57     1.62     8.34     0  02:45        1.61
  YS02001884           JUNCTION     0.67     1.72     8.34     0  03:00        1.71
  YS02001759           JUNCTION     1.81     2.08     8.44     0  02:58        2.06
  YS02001887           JUNCTION     0.75     1.80     8.33     0  02:58        1.79
  YS02001890           JUNCTION     0.78     1.81     8.32     0  02:45        1.81
  YS02001898           JUNCTION     0.54     1.57     8.30     0  02:45        1.55
  YS02001901           JUNCTION     0.66     1.67     8.28     0  02:45        1.67
  YS02001904           JUNCTION     0.64     1.64     8.27     0  02:45        1.63
  YS02001907           JUNCTION     0.97     1.96     8.25     0  02:45        1.96
  YS02001910           JUNCTION     0.76     1.78     8.29     0  02:46        1.77
  YS02001915           JUNCTION     0.56     1.58     8.30     0  02:46        1.57
  YS02001918           JUNCTION     0.30     1.26     8.33     0  02:46        1.25
  YS02001619           JUNCTION     1.28     1.61     8.54     0  02:27        1.47
  YS02001629           JUNCTION     1.64     1.85     8.40     0  02:27        1.84
  YS02001641           JUNCTION     1.74     1.94     8.37     0  02:36        1.93
  YS02001644           JUNCTION     1.74     1.92     8.35     0  02:34        1.92
  YS02001652           JUNCTION     1.59     2.10     8.69     0  03:39        2.04
  YS02001655           JUNCTION     1.35     2.20     9.05     0  02:20        1.96
  YS02001920           JUNCTION     0.40     1.34     8.35     0  02:46        1.32
  YS02001923           JUNCTION     0.23     1.10     8.36     0  02:46        1.08
  YS02001926           JUNCTION     0.29     0.93     8.37     0  02:46        0.88
  YS02001929           JUNCTION     0.16     0.68     8.38     0  02:46        0.66
  YS02001658           JUNCTION     1.08     2.07     9.21     0  03:39        1.83
  YS02001661           JUNCTION     0.84     2.06     9.47     0  03:42        1.70
  YS02001664           JUNCTION     0.37     0.57     8.49     0  02:40        0.57
  YS02001622           JUNCTION     1.30     1.59     8.49     0  02:27        1.49
  YS02001633           JUNCTION     1.73     1.94     8.40     0  02:54        1.93
  YS02001649           JUNCTION     1.78     2.05     8.44     0  02:37        2.05
  YS02001757           JUNCTION     1.91     2.18     8.44     0  02:57        2.16
  YS02001895           JUNCTION     0.54     1.57     8.31     0  02:45        1.55
  YS02001625           JUNCTION     1.59     1.78     8.38     0  02:27        1.78
  YS02163301           JUNCTION     1.67     1.88     8.40     0  02:27        1.88
  YS02163601           JUNCTION     1.78     1.99     8.39     0  07:01        1.98
  YS02164001           JUNCTION     1.72     1.92     8.38     0  07:01        1.91
  YS02001647           JUNCTION     1.57     1.80     8.41     0  02:47        1.80
  YSB1154              JUNCTION     0.26     0.47     9.52     0  03:01        0.47
  YSB6556              JUNCTION     0.16     0.35     9.52     0  03:01        0.35
  YSB1174              JUNCTION     0.21     0.41     9.52     0  03:01        0.41
  YSB1171              JUNCTION     0.42     0.62     9.52     0  03:01        0.62
  YS02006553           JUNCTION     0.97     1.97     8.25     0  02:59        1.96
  YS02006561           JUNCTION     0.32     1.09     7.75     0  02:45        1.07
  YS02006556           JUNCTION     0.94     1.92     8.23     0  02:57        1.91
  YS02006558           JUNCTION     0.98     1.96     8.23     0  03:00        1.95
  YS02001783           JUNCTION     0.54     1.47     7.61     0  02:45        1.46
  YS02001784           JUNCTION     0.56     1.68     7.75     0  02:37        1.40
  YS02001786           JUNCTION     0.49     1.82     7.85     0  02:37        1.25
  YS02001788           JUNCTION     0.41     1.72     7.70     0  02:37        1.12
  YS02001790           JUNCTION     0.52     1.96     7.60     0  02:36        1.28
  YS02001791           JUNCTION     0.47     2.26     7.73     0  02:36        1.27
  YS02001793           JUNCTION     0.64     2.28     7.12     0  01:57        1.80
  WSC                  OUTFALL      0.36     0.46     1.13     0  03:08        0.46
  JK-storage           STORAGE      2.69     5.80     6.60     0  02:01        5.80
  CC-storage           STORAGE      1.16     1.41     8.41     0  03:05        1.41
  XR-storage           STORAGE      6.68     7.72     5.72     0  02:55        7.72
  
  
  *******************
  Node Inflow Summary
  *******************
  
  -------------------------------------------------------------------------------------------------
                                  Maximum  Maximum                  Lateral       Total        Flow
                                  Lateral    Total  Time of Max      Inflow      Inflow     Balance
                                   Inflow   Inflow   Occurrence      Volume      Volume       Error
  Node                 Type           LPS      LPS  days hr:min    10^6 ltr    10^6 ltr     Percent
  -------------------------------------------------------------------------------------------------
  WS02001211           JUNCTION      7.35   389.73     0  03:19       0.207        10.1       0.407
  WS02001212           JUNCTION      0.00   392.03     0  03:18           0          10       0.252
  WS02001213           JUNCTION      0.00   394.16     0  03:18           0          10       0.293
  WS02003069           JUNCTION      0.32  1219.15     0  03:07     0.00902        20.3       0.191
  WS02003072           JUNCTION      0.00  1219.14     0  03:07           0        20.2       0.224
  WS02003073           JUNCTION      1.82  1221.14     0  03:08      0.0514        20.2       0.260
  WS02003060           JUNCTION     16.53  1218.72     0  03:06       0.466        20.3       0.179
  WS02003066           JUNCTION      0.00   828.82     0  03:05           0        9.89       0.054
  WS02003059           JUNCTION      0.00   397.01     0  03:18           0        9.99       0.415
  WS02003067           JUNCTION      0.00   828.48     0  03:05           0         9.9       0.107
  WS02004401           JUNCTION      0.00   831.90     0  03:03           0        10.2       0.242
  WS02004402           JUNCTION      0.00   832.61     0  03:03           0        10.1       0.224
  WS02004403           JUNCTION      0.00   832.05     0  03:03           0        10.1       0.202
  WS02004404           JUNCTION      0.16   832.28     0  03:03     0.00457        10.1       0.149
  WS02004406           JUNCTION      0.00   832.50     0  03:03           0        10.1       0.363
  WS02004409           JUNCTION      0.00   831.44     0  03:03           0          10       0.204
  WS02004410           JUNCTION      0.00   829.70     0  03:04           0          10       0.225
  WS02004411           JUNCTION      0.00   828.78     0  03:04           0        9.98       0.227
  WS02004412           JUNCTION      0.00   828.39     0  03:04           0        9.96       0.239
  WS02004413           JUNCTION      0.00   828.38     0  03:05           0        9.94       0.346
  WS02004405           JUNCTION      0.04   832.69     0  03:03     0.00107        10.1       0.221
  WS02006109           JUNCTION      1.23   818.94     0  03:02      0.0347        10.2       0.208
  WS02006110           JUNCTION      0.00   818.76     0  03:02           0        10.2       0.209
  WS02006111           JUNCTION      0.00   817.94     0  03:03           0        10.2       0.053
  WS02006112           JUNCTION     16.72   831.69     0  03:03      0.0747        10.3       0.329
  WS02006113           JUNCTION      0.00   818.63     0  03:02           0        10.2       0.121
  WS02006115           JUNCTION      0.00   831.66     0  03:03           0        10.2       0.245
  WS02006116           JUNCTION      0.00   831.64     0  03:03           0        10.2       0.209
  WS02006230           JUNCTION     10.28   534.91     0  07:23        0.29        8.08       0.210
  WS02006231           JUNCTION      0.00   524.49     0  07:23           0        7.81       0.169
  WS02006232           JUNCTION      0.00   524.44     0  07:23           0        7.82       0.233
  WS02006234           JUNCTION      0.00   524.12     0  07:23           0        7.83       0.135
  WS02006235           JUNCTION      0.00   524.26     0  06:34           0        7.91       0.153
  WS02006238           JUNCTION      0.00   419.66     0  07:30           0        4.62       0.207
  WS02006240           JUNCTION      0.00   417.87     0  07:30           0        4.59       0.360
  WS02006242           JUNCTION      0.00   417.49     0  07:30           0        4.59       0.402
  WS02006243           JUNCTION      0.00   417.19     0  07:30           0        4.58       0.308
  WS02006245           JUNCTION      0.00   416.76     0  07:30           0        4.59       0.337
  WS02006247           JUNCTION      0.00   416.80     0  07:30           0         4.6       0.248
  WS02006248           JUNCTION      0.00   417.15     0  07:30           0         4.6       0.198
  WS02006249           JUNCTION      0.00   428.74     0  07:22           0        4.83       0.333
  WS02006239           JUNCTION      0.00   419.03     0  07:30           0        4.61       0.237
  WS02006251           JUNCTION      0.08   413.44     0  05:13     0.00217         4.9       0.351
  WS02006252           JUNCTION      0.00   400.00     0  05:10           0        4.44       0.013
  WS02006253           JUNCTION      1.99   133.92     0  07:21     0.00928       0.473       2.749
  WS02006256           JUNCTION      0.00   983.00     0  02:10           0        9.95      -0.002
  WS02004138           JUNCTION      0.00   380.00     0  00:00           0        9.92       0.062
  WS02004139           JUNCTION      0.32   395.85     0  00:00     0.00905        9.92       0.465
  WS02004407           JUNCTION      0.00   831.70     0  03:03           0          10       0.091
  WS02006228           JUNCTION      0.00   817.78     0  03:02           0        10.2       0.163
  WS02006229           JUNCTION      0.00   818.36     0  03:02           0        10.2       0.148
  WS02006280           JUNCTION      0.00   413.66     0  03:02           0        2.17       0.007
  WS02006284           JUNCTION      0.10   413.60     0  03:02      0.0027        2.17       0.042
  WS02006287           JUNCTION      0.00   413.26     0  03:01           0        2.17       0.033
  WSF200               JUNCTION      0.00   828.93     0  03:05           0        9.89       0.053
  HS02004901           JUNCTION     20.36    20.36     0  03:01      0.0902      0.0904       1.990
  HS02004881           JUNCTION      7.95    84.19     0  03:01      0.0378        0.41       0.110
  HS02004876           JUNCTION     14.96    76.76     0  03:01      0.0728       0.373       0.148
  HS02004870           JUNCTION     14.89    62.16     0  03:01      0.0716         0.3       0.037
  HS02004862           JUNCTION     15.28    47.69     0  03:01      0.0788       0.229       0.076
  HS02004856           JUNCTION     11.18    32.73     0  03:01      0.0539       0.152       0.960
  HS02004852           JUNCTION      0.00    21.94     0  03:01           0      0.0979       0.059
  HS02004848           JUNCTION     34.61    34.61     0  03:01       0.174       0.174       0.028
  HS02004842           JUNCTION      0.00    12.41     0  03:01           0      0.0895      16.998
  HS02004837           JUNCTION     31.84    43.95     0  03:01       0.303        0.38       0.214
  HS02004830           JUNCTION      0.15    43.86     0  03:01     0.00423        0.37       0.335
  HS02004824           JUNCTION     42.39    85.91     0  03:01       0.225       0.594       0.091
  HS02004817           JUNCTION      0.60    86.29     0  03:01      0.0169        0.61       2.809
  HS02004807           JUNCTION     27.35   112.33     0  03:01       0.131       0.725       0.605
  HS02004802           JUNCTION      0.00   111.37     0  03:01           0       0.723       0.548
  HS02004799           JUNCTION     22.08   258.94     0  03:01       0.107        1.24       0.223
  HS02004792           JUNCTION    102.90   238.03     0  03:01        0.47        1.14       0.036
  HS02004788           JUNCTION     34.16   135.95     0  03:01       0.199       0.669       0.059
  HS02004785           JUNCTION      0.15   103.53     0  03:01     0.00423       0.471       0.106
  HS02004777           JUNCTION      0.03   104.16     0  03:01    0.000846       0.472       1.115
  HS02004770           JUNCTION     85.35   105.11     0  03:01       0.385       0.473       0.659
  HS02004480           JUNCTION      0.00   302.47     0  03:01           0        1.46       0.076
  HS02004479           JUNCTION      0.00    44.91     0  03:02           0       0.232       0.317
  HS02004478           JUNCTION      0.00   413.12     0  03:01           0        2.17       0.014
  YS02001745           JUNCTION    336.84   396.08     0  02:27        2.69         2.7       0.357
  YS02001748           JUNCTION      0.04   565.52     0  02:27     0.00127        2.69       0.766
  YS02001751           JUNCTION      0.01   359.37     0  02:17     0.00031        2.66       0.903
  YS02001754           JUNCTION      0.26   342.46     0  03:01     0.00733        2.64       0.940
  YS02001762           JUNCTION      0.00   292.09     0  02:38           0        1.92       1.106
  YS02001765           JUNCTION      0.00   290.93     0  02:38           0        1.92       1.266
  YS02001767           JUNCTION      0.54   291.03     0  02:38      0.0151        1.95       1.847
  YS02001770           JUNCTION    415.94   565.40     0  03:01        3.01        3.35       0.935
  YS02001774           JUNCTION      0.00   566.81     0  03:01           0        1.72       1.461
  YS02001779           JUNCTION      0.01   566.48     0  03:01    0.000141        1.69       0.918
  YS02001882           JUNCTION      0.00    36.75     0  02:38           0      0.0236      10.916
  YS02001884           JUNCTION      0.00    71.26     0  02:38           0      0.0607      11.379
  YS02001759           JUNCTION    399.49   572.20     0  02:39        2.78        4.34       0.528
  YS02001887           JUNCTION    494.68   495.89     0  03:01        3.19        3.22       0.268
  YS02001890           JUNCTION      0.00   495.67     0  03:01           0        3.18       0.297
  YS02001898           JUNCTION      0.00   495.09     0  03:00           0        3.16       0.101
  YS02001901           JUNCTION      0.00   494.97     0  03:01           0        3.16       0.228
  YS02001904           JUNCTION      0.00   495.61     0  03:01           0        3.16       0.207
  YS02001907           JUNCTION      0.00   951.21     0  03:01           0        7.02       0.350
  YS02001910           JUNCTION      0.00   456.40     0  03:00           0        3.87       0.307
  YS02001915           JUNCTION    296.36   455.88     0  03:01        2.25         3.9       0.160
  YS02001918           JUNCTION      0.00   215.46     0  02:47           0        1.66       0.117
  YS02001619           JUNCTION    290.53   290.53     0  03:01        2.24        2.24       0.537
  YS02001629           JUNCTION      0.00   218.76     0  02:17           0        1.69       1.707
  YS02001641           JUNCTION      0.00   400.28     0  02:28           0        4.25       0.490
  YS02001644           JUNCTION    321.01  1354.71     0  03:01        2.59        9.75       0.263
  YS02001652           JUNCTION      0.00   376.28     0  03:01           0        2.35       1.009
  YS02001655           JUNCTION      0.15   398.66     0  02:18     0.00434        2.37       1.016
  YS02001920           JUNCTION      2.87   214.36     0  02:47      0.0809        1.65       0.185
  YS02001923           JUNCTION      0.04   239.24     0  02:47     0.00106        1.56       0.048
  YS02001926           JUNCTION      0.05   193.37     0  02:47     0.00147        1.56       0.207
  YS02001929           JUNCTION    151.13   151.13     0  03:01        1.56        1.56       0.037
  YS02001658           JUNCTION      0.00   593.41     0  02:23           0        2.41       0.895
  YS02001661           JUNCTION      0.00   632.02     0  02:40           0        2.81      -0.344
  YS02001664           JUNCTION    361.21   361.21     0  03:01        2.38        2.79       0.176
  YS02001622           JUNCTION      0.00   291.23     0  03:01           0        2.22       1.440
  YS02001633           JUNCTION    326.74   398.44     0  02:35        2.66        4.31       0.743
  YS02001649           JUNCTION      0.00   830.22     0  02:35           0        5.86       0.631
  YS02001757           JUNCTION      0.00  1579.80     0  02:35           0        9.46       0.982
  YS02001895           JUNCTION      0.00   495.18     0  03:01           0        3.17       0.167
  YS02001625           JUNCTION      0.00   290.76     0  03:01           0        2.19       1.795
  YS02163301           JUNCTION      0.00   218.29     0  02:22           0        1.67       1.453
  YS02163601           JUNCTION      0.11   398.32     0  02:35      0.0031        4.28       0.704
  YS02164001           JUNCTION      0.00   398.80     0  02:35           0        4.25       0.466
  YS02001647           JUNCTION      0.00   653.47     0  03:01           0        4.97       0.566
  YSB1154              JUNCTION     26.18    26.18     0  03:01       0.129        0.13       1.130
  YSB6556              JUNCTION      0.00    25.82     0  03:01           0        0.13       0.969
  YSB1174              JUNCTION     20.52    20.52     0  03:01      0.0948      0.0953       1.368
  YSB1171              JUNCTION      0.00    45.31     0  03:01           0       0.231       2.821
  YS02006553           JUNCTION      0.00   703.90     0  03:31           0        6.57       0.238
  YS02006561           JUNCTION      0.00   982.40     0  03:00           0        9.45       0.006
  YS02006556           JUNCTION      0.00   703.89     0  03:31           0        6.57       0.176
  YS02006558           JUNCTION    433.40   983.42     0  03:01        2.93        9.48       0.057
  YS02001783           JUNCTION      0.00   982.35     0  02:59           0        9.44       0.027
  YS02001784           JUNCTION      1.06   983.67     0  03:00      0.0299        9.47       0.035
  YS02001786           JUNCTION      0.06   983.52     0  02:59     0.00159        9.47       0.037
  YS02001788           JUNCTION      0.07   983.41     0  03:02       0.002        9.47       0.024
  YS02001790           JUNCTION      0.15   983.80     0  02:59     0.00437        9.47       0.015
  YS02001791           JUNCTION      0.00   983.95     0  02:59           0        9.47       0.013
  YS02001793           JUNCTION      0.00   983.95     0  03:00           0        9.47      -0.017
  WSC                  OUTFALL       0.00  1221.50     0  03:08           0        20.2       0.000
  JK-storage           STORAGE       0.00   984.27     0  02:59           0        9.62     -11.139
  CC-storage           STORAGE       0.00  1578.84     0  02:35           0        7.84       0.779
  XR-storage           STORAGE     844.76   844.76     0  03:01        11.8        12.4      -0.001
  
  
  **********************
  Node Surcharge Summary
  **********************
  
  Surcharging occurs when water rises above the top of the highest conduit.
  ---------------------------------------------------------------------
                                               Max. Height   Min. Depth
                                   Hours       Above Crown    Below Rim
  Node                 Type      Surcharged         Meters       Meters
  ---------------------------------------------------------------------
  WS02004401           JUNCTION        0.29          0.136        1.524
  WS02004402           JUNCTION        0.33          0.141        1.599
  WS02004403           JUNCTION        0.34          0.124        1.906
  WS02004404           JUNCTION        0.58          0.177        2.603
  WS02004406           JUNCTION        0.48          0.117        2.333
  WS02004405           JUNCTION        0.53          0.155        2.645
  WS02006109           JUNCTION        4.08          0.494        1.326
  WS02006110           JUNCTION        2.48          0.240        1.610
  WS02006112           JUNCTION        2.90          0.417        1.263
  WS02006115           JUNCTION        0.17          0.080        2.170
  WS02006116           JUNCTION        0.19          0.086        2.204
  WS02006230           JUNCTION        1.66          0.442        1.128
  WS02006231           JUNCTION        2.34          0.509        1.021
  WS02006232           JUNCTION        3.98          0.666        0.814
  WS02006234           JUNCTION        3.18          0.602        0.638
  WS02006235           JUNCTION        3.57          0.661        0.629
  WS02006238           JUNCTION        3.64          0.672        0.758
  WS02006240           JUNCTION        3.14          0.571        0.819
  WS02006242           JUNCTION        3.20          0.602        0.218
  WS02006243           JUNCTION        2.87          0.499        0.271
  WS02006245           JUNCTION        2.62          0.458        0.392
  WS02006247           JUNCTION        2.63          0.460        0.300
  WS02006248           JUNCTION        2.23          0.372        0.008
  WS02006249           JUNCTION        2.31          0.390        0.000
  WS02006239           JUNCTION        3.24          0.607        0.683
  WS02006251           JUNCTION        1.09          0.243        0.937
  WS02006252           JUNCTION        2.53          0.432        0.668
  WS02006253           JUNCTION        1.13          0.302        2.178
  WS02006256           JUNCTION        6.88          2.050        0.000
  WS02006228           JUNCTION        4.06          0.613        1.587
  YS02001748           JUNCTION        5.30          0.499        0.691
  YS02001751           JUNCTION        5.48          0.681        0.519
  YS02001754           JUNCTION        5.69          0.779        0.371
  YS02001762           JUNCTION        5.87          1.041        0.109
  YS02001765           JUNCTION        5.84          0.989        0.111
  YS02001767           JUNCTION        5.81          0.942        0.088
  YS02001770           JUNCTION        5.80          0.920        0.000
  YS02001774           JUNCTION        5.86          1.023        0.027
  YS02001779           JUNCTION        5.67          0.680        0.000
  YS02001882           JUNCTION        0.88          0.623        0.207
  YS02001884           JUNCTION        0.91          0.661        0.209
  YS02001759           JUNCTION        5.89          1.078        0.132
  YS02001887           JUNCTION        0.96          0.747        0.203
  YS02001890           JUNCTION        1.00          0.760        0.000
  YS02001898           JUNCTION        0.85          0.537        0.203
  YS02001901           JUNCTION        0.94          0.674        0.196
  YS02001904           JUNCTION        0.92          0.638        0.212
  YS02001907           JUNCTION        1.76          0.950        0.000
  YS02001910           JUNCTION        1.05          0.780        0.320
  YS02001915           JUNCTION        0.87          0.582        0.418
  YS02001918           JUNCTION        0.69          0.265        0.545
  YS02001619           JUNCTION        5.47          0.610        0.000
  YS02001629           JUNCTION        5.47          0.470        0.000
  YS02001641           JUNCTION        5.85          0.936        0.164
  YS02001644           JUNCTION        5.85          0.920        0.000
  YS02001652           JUNCTION        5.73          1.068        0.062
  YS02001655           JUNCTION        5.50          1.200        0.000
  YS02001920           JUNCTION        0.72          0.344        0.796
  YS02001658           JUNCTION        5.34          1.069        0.231
  YS02001661           JUNCTION        0.20          0.991        0.399
  YS02001622           JUNCTION        5.50          0.590        0.030
  YS02001633           JUNCTION        5.83          0.925        0.135
  YS02001649           JUNCTION        5.87          1.050        0.000
  YS02001757           JUNCTION        5.98          1.175        0.035
  YS02001895           JUNCTION        0.86          0.566        0.184
  YS02001625           JUNCTION        5.76          0.780        0.000
  YS02163301           JUNCTION        5.81          0.881        0.149
  YS02163601           JUNCTION        5.87          0.987        0.093
  YS02164001           JUNCTION        5.84          0.920        0.180
  YS02001647           JUNCTION        5.75          0.803        0.097
  YS02006553           JUNCTION        1.85          0.966        0.224
  YS02006561           JUNCTION        0.75          0.287        0.863
  YS02006556           JUNCTION        1.30          0.880        0.470
  YS02006558           JUNCTION        1.26          0.861        0.539
  YS02001783           JUNCTION        1.00          0.673        0.927
  YS02001784           JUNCTION        0.98          0.881        0.609
  YS02001786           JUNCTION        0.92          1.017        0.413
  YS02001788           JUNCTION        0.87          0.919        0.561
  YS02001790           JUNCTION        1.64          1.157        0.000
  YS02001791           JUNCTION        1.76          1.461        0.459
  YS02001793           JUNCTION        2.08          1.284        1.316
  
  
  *********************
  Node Flooding Summary
  *********************
  
  Flooding refers to all water that overflows a node, whether it ponds or not.
  --------------------------------------------------------------------------
                                                             Total   Maximum
                                 Maximum   Time of Max       Flood    Ponded
                        Hours       Rate    Occurrence      Volume     Depth
  Node                 Flooded       LPS   days hr:min    10^6 ltr    Meters
  --------------------------------------------------------------------------
  WS02006249              1.02    107.03      0  07:22       0.213     0.000
  WS02006256              3.90    810.48      0  03:02       6.600     0.000
  YS02001770              0.01      6.28      0  02:18       0.000     0.000
  YS02001779              2.60    566.14      0  03:01       1.667     0.000
  YS02001890              0.01      5.38      0  02:45       0.000     0.000
  YS02001907              0.57    403.05      0  03:01       0.438     0.000
  YS02001619              0.01     14.40      0  02:27       0.000     0.000
  YS02001629              0.01      7.59      0  02:27       0.000     0.000
  YS02001644              4.23   1354.37      0  03:01       7.676     0.000
  YS02001655              0.01    203.01      0  02:20       0.000     0.000
  YS02001649              0.06     31.57      0  03:31       0.002     0.000
  YS02001625              1.19    235.96      0  03:01       0.464     0.000
  YS02001790              0.01    157.71      0  02:36       0.000     0.000
  JK-storage              0.67    793.13      0  02:40       0.768     0.000
  XR-storage              3.05    464.64      0  03:01       1.875     0.000
  
  
  **********************
  Storage Volume Summary
  **********************
  
  --------------------------------------------------------------------------------------------------
                         Average     Avg  Evap Exfil       Maximum     Max    Time of Max    Maximum
                          Volume    Pcnt  Pcnt  Pcnt        Volume    Pcnt     Occurrence    Outflow
  Storage Unit           1000 m3    Full  Loss  Loss       1000 m3    Full    days hr:min        LPS
  --------------------------------------------------------------------------------------------------
  JK-storage               0.135      46     0     0         0.291     100       0  02:01     983.00
  CC-storage               3.242      21     0     0         3.916      25       0  03:05     400.00
  XR-storage               0.802      87     0     0         0.926     100       0  02:55     380.00
  
  
  ***********************
  Outfall Loading Summary
  ***********************
  
  ---------------------------------------------------------------------------------------------------------------------------------
                         Flow       Avg       Max       Total         Total         Total         Total         Total         Total
                         Freq      Flow      Flow      Volume           COD            SS            TN            TP         NH4-N
  Outfall Node           Pcnt       LPS       LPS    10^6 ltr            kg            kg            kg            kg            kg
  ---------------------------------------------------------------------------------------------------------------------------------
  WSC                   99.98    823.00   1221.50      20.183      2354.733      4026.428       152.064        17.914        92.094
  ---------------------------------------------------------------------------------------------------------------------------------
  System                99.98    823.00   1221.50      20.183      2354.733      4026.428       152.064        17.914        92.094
  
  
  ********************
  Link Flow Summary
  ********************
  
  -----------------------------------------------------------------------------
                                 Maximum  Time of Max   Maximum    Max/    Max/
                                  |Flow|   Occurrence   |Veloc|    Full    Full
  Link                 Type          LPS  days hr:min     m/sec    Flow   Depth
  -----------------------------------------------------------------------------
  WS02003066WSF200     CONDUIT    828.93     0  03:05      2.94    0.14    0.30
  WS02006287WS02006284 CONDUIT    413.51     0  03:02      2.04    0.19    0.30
  WS02006284WS02006280 CONDUIT    413.66     0  03:02      2.28    0.17    0.28
  WS02006280WS02006229 CONDUIT    413.65     0  03:02      3.63    0.09    0.25
  WS02006229WS02006228 CONDUIT    817.78     0  03:02      1.63    2.71    1.00
  WS02006256WS02006235 CONDUIT    288.92     0  00:00      4.23    3.06    1.00
  WS02006253WS02006251 CONDUIT    133.44     0  07:21      0.59    0.40    1.00
  WS02006252WS02006251 CONDUIT    404.48     0  05:13      3.22    1.48    1.00
  WS02006251WS02006249 CONDUIT    428.74     0  07:22      1.11    1.24    1.00
  WS02006249WS02006248 CONDUIT    417.15     0  07:30      1.14    2.29    1.00
  WS02006248WS02006247 CONDUIT    416.80     0  07:30      1.11    0.91    1.00
  WS02006247WS02006245 CONDUIT    416.76     0  07:30      1.08    3.30    1.00
  WS02006245WS02006243 CONDUIT    417.19     0  07:30      1.09    1.23    1.00
  WS02006243WS02006242 CONDUIT    417.49     0  07:30      1.08    0.89    1.00
  WS02006242WS02006240 CONDUIT    417.87     0  07:30      1.09    1.66    1.00
  WS02006240WS02006239 CONDUIT    419.03     0  07:30      1.09    1.32    1.00
  WS02006239WS02006238 CONDUIT    419.66     0  07:30      1.09    1.34    1.00
  WS02006238WS02006235 CONDUIT    421.60     0  07:30      1.45    0.94    1.00
  WS02006235WS02006234 CONDUIT    524.12     0  07:23      1.36    5.53    1.00
  WS02006234WS02006232 CONDUIT    524.44     0  07:23      1.39    1.06    1.00
  WS02006232WS02006231 CONDUIT    524.49     0  07:23      1.36    1.10    1.00
  WS02006231WS02006230 CONDUIT    524.63     0  07:23      1.42    7.96    1.00
  WS02006230WS02006229 CONDUIT    534.41     0  07:23      1.39   11.89    1.00
  WS02006228WS02006109 CONDUIT    817.71     0  03:02      1.63    3.57    1.00
  WS02006116WS02004401 CONDUIT    831.90     0  03:03      1.06    1.15    1.00
  WS02006115WS02006116 CONDUIT    831.64     0  03:03      1.06    1.07    1.00
  WS02006113WS02006111 CONDUIT    817.94     0  03:03      2.57    0.98    0.81
  WS02006112WS02006115 CONDUIT    831.66     0  03:03      1.06    0.49    1.00
  WS02006111WS02006112 CONDUIT    819.20     0  03:03      1.73    0.39    0.90
  WS02006110WS02006113 CONDUIT    818.63     0  03:02      1.73    0.74    0.91
  WS02006109WS02006110 CONDUIT    818.76     0  03:02      1.63    1.57    1.00
  WS02004411WS02004412 CONDUIT    828.39     0  03:04      1.16    1.18    0.85
  WS02004401WS02004402 CONDUIT    832.61     0  03:03      1.06    1.00    1.00
  WS02004413WS02003067 CONDUIT    828.48     0  03:05      1.42    0.35    0.70
  WS02004412WS02004413 CONDUIT    828.38     0  03:05      1.10    0.55    0.91
  WS02004410WS02004411 CONDUIT    828.78     0  03:04      1.15    1.13    0.86
  WS02004409WS02004410 CONDUIT    829.70     0  03:04      1.15    1.07    0.87
  WS02004407WS02004409 CONDUIT    831.44     0  03:03      1.64    0.29    0.62
  WS02004406WS02004407 CONDUIT    831.70     0  03:03      1.45    0.37    0.69
  WS02004405WS02004406 CONDUIT    832.50     0  03:03      1.10    1.64    1.00
  WS02004404WS02004405 CONDUIT    832.65     0  03:03      1.15    8.16    1.00
  WS02004403WS02004404 CONDUIT    832.12     0  03:03      1.06    0.60    1.00
  WS02004402WS02004403 CONDUIT    832.05     0  03:03      1.06    1.20    1.00
  WS02004139WS02001211 CONDUIT    382.39     0  03:19      0.90    0.48    0.63
  WS02004138WS02004139 CONDUIT    395.52     0  00:00      3.64    0.08    0.46
  WS02003067WS02003066 CONDUIT    828.82     0  03:05      1.54    0.27    0.48
  WS02001213WS02003059 CONDUIT    397.01     0  03:18      0.89    0.66    0.84
  WS02001212WS02001213 CONDUIT    394.16     0  03:18      1.32    0.61    0.53
  WS02001211WS02001212 CONDUIT    392.03     0  03:18      0.78    0.30    0.69
  WS02003072WS02003073 CONDUIT   1219.32     0  03:08      1.90    2.63    0.55
  WS02003069WS02003072 CONDUIT   1219.14     0  03:07      1.77    0.59    0.59
  WS02003060WS02003069 CONDUIT   1218.83     0  03:07      1.98    0.48    0.53
  WS02003059WS02003060 CONDUIT    400.77     0  04:36      0.95    0.26    0.74
  HS02004901HS02004770 CONDUIT     20.52     0  03:01      0.07    0.08    0.42
  HS02004876HS02004881 CONDUIT     76.55     0  03:01      0.95    0.81    0.12
  HS02004870HS02004876 CONDUIT     61.90     0  03:01      0.65    0.04    0.14
  HS02004842HS02004848 CONDUIT     12.41     0  03:01      0.06    0.01    0.31
  HS02004837HS02004842 CONDUIT     12.98     0  03:02      0.42    0.01    0.32
  HS02004830HS02004837 CONDUIT     43.71     0  03:01      0.57    0.04    0.11
  HS02004824HS02004830 CONDUIT     43.67     0  03:01      0.59    0.06    0.11
  HS02004817HS02004824 CONDUIT     85.69     0  03:01      0.26    0.04    0.48
  HS02004770HS02004777 CONDUIT    104.13     0  03:01      0.35    0.19    0.43
  HS02004799HS02004480 CONDUIT    258.32     0  03:01      0.83    0.33    0.44
  HS02004792HS02004799 CONDUIT    237.07     0  03:01      0.95    0.15    0.36
  HS02004788HS02004792 CONDUIT    135.44     0  03:01      1.06    0.09    0.18
  HS02004785HS02004788 CONDUIT    103.22     0  03:02      0.71    0.78    0.21
  HS02004777HS02004785 CONDUIT    103.38     0  03:01      0.42    0.13    0.35
  HS02004480HS02004478 CONDUIT    302.31     0  03:01      1.26    1.27    0.34
  HS02004479HS02004480 CONDUIT     46.30     0  03:02      0.32    0.04    0.43
  HS02004862HS02004870 CONDUIT     47.43     0  03:01      0.66    0.05    0.10
  HS02004848HS02004852 CONDUIT     21.94     0  03:01      0.45    0.02    0.07
  HS02004856HS02004862 CONDUIT     32.47     0  03:01      0.48    0.03    0.10
  HS02004852HS02004856 CONDUIT     21.86     0  03:02      0.25    0.02    0.13
  HS02004802HS02004478 CONDUIT    111.53     0  03:02      0.45    0.10    0.36
  HS02004478WS02006287 CONDUIT    413.26     0  03:01      1.75    0.12    0.26
  HS02004817HS02004807 CONDUIT     86.14     0  03:01      0.19    0.05    0.63
  HS02004807HS02004802 CONDUIT    111.37     0  03:01      0.38    0.21    0.42
  YS02001759YS02001757 CONDUIT    571.46     0  02:39      0.73    0.41    1.00
  YS02001762YS02001759 CONDUIT    290.65     0  02:38      0.37    0.33    1.00
  YS02001765YS02001762 CONDUIT    292.09     0  02:38      0.37    0.27    1.00
  YS02001770YS02001767 CONDUIT    290.50     0  02:38      0.37    1.15    1.00
  YS02001774YS02001770 CONDUIT    566.81     0  03:01      0.72    0.36    1.00
  YS02001779YS02001774 CONDUIT    566.47     0  03:01      0.72    0.29    1.00
  YS02001649YS02001757 CONDUIT    830.78     0  02:35      1.06    0.50    1.00
  YS02001767YS02001765 CONDUIT    290.93     0  02:38      0.37    0.37    1.00
  YS02006561YS02001783 CONDUIT    982.35     0  02:59      2.15    0.51    1.00
  YS02001783YS02001784 CONDUIT    982.61     0  03:00      1.95    1.35    1.00
  YS02001784YS02001785 CONDUIT    983.46     0  02:59      1.96    2.29    1.00
  YS02001788YS02001790 CONDUIT    983.65     0  02:59      2.44    0.72    1.00
  YS02001790YS02001791 CONDUIT    983.95     0  02:59      2.92    1.07    1.00
  YS02001791YS02001793 CONDUIT    983.95     0  03:00      5.84    0.42    1.00
  YS02001910YS02001907 CONDUIT    456.12     0  03:01      0.58    0.26    1.00
  YS02001786YS02001788 CONDUIT    983.34     0  03:02      2.31    1.89    1.00
  YS02001915YS02001910 CONDUIT    456.40     0  03:00      0.59    0.23    1.00
  YS02001918YS02001915 CONDUIT    246.19     0  03:31      0.44    0.14    1.00
  YS02001923YS02001920 CONDUIT    211.49     0  02:47      0.72    0.09    1.00
  YS02001926YS02001923 CONDUIT    239.20     0  02:47      0.83    0.34    0.89
  YS02001929YS02001926 CONDUIT    193.32     0  02:47      0.89    0.09    0.79
  YS02001920YS02001918 CONDUIT    215.46     0  02:47      0.70    0.21    1.00
  YS02001629YS02163301 CONDUIT    218.29     0  02:22      0.28    0.27    1.00
  YS02001619YS02001622 CONDUIT    291.23     0  03:01      0.61    0.43    1.00
  YS02001622YS02001625 CONDUIT    290.76     0  03:01      0.37    0.16    1.00
  YS02001625YS02001629 CONDUIT    218.76     0  02:17      0.28    0.10    1.00
  YS02163301YS02001633 CONDUIT    218.01     0  02:22      0.28    0.20    1.00
  YS02163601YS02164001 CONDUIT    398.80     0  02:35      0.51    0.35    1.00
  YS02164001YS02001641 CONDUIT    400.28     0  02:28      0.51    0.55    1.00
  YS02001641YS02001644 CONDUIT    403.84     0  02:28      0.51    1.31    1.00
  YS02001647YS02001649 CONDUIT    653.47     0  03:01      0.83    0.35    1.00
  YS02006553YS02006556 CONDUIT    703.89     0  03:31      0.90    0.60    1.00
  YS02006556YS02006558 CONDUIT    704.15     0  03:31      0.90    0.56    1.00
  YSB6556YSB1171       CONDUIT     25.76     0  03:03      0.09    0.03    0.70
  YS02001907YS02006553 CONDUIT    703.90     0  03:31      0.78    0.83    1.00
  YS02006558YS02006561 CONDUIT    982.40     0  03:00      3.47    2.17    1.00
  YS02001633YS02163601 CONDUIT    398.21     0  02:35      0.51    0.42    1.00
  YS02001644YS02001647 CONDUIT    654.34     0  03:01      0.83    0.38    1.00
  YS02001745YS02001748 CONDUIT    565.48     0  02:27      1.47    0.22    0.96
  YS02001748YS02001751 CONDUIT    359.36     0  02:17      1.06    0.18    1.00
  YS02001751YS02001754 CONDUIT    342.20     0  03:01      0.92    0.16    1.00
  YS02001754YS02001757 CONDUIT    342.28     0  03:01      0.44    0.14    1.00
  YS02001882YS02001884 CONDUIT     36.75     0  02:38      0.13    0.04    1.00
  YS02001884YS02001887 CONDUIT     71.26     0  02:38      0.09    0.09    1.00
  YS02001890YS02001895 CONDUIT    495.18     0  03:01      0.63    0.23    1.00
  YS02001895YS02001898 CONDUIT    495.09     0  03:00      0.63    0.86    1.00
  YS02001898YS02001901 CONDUIT    494.97     0  03:01      0.63    0.32    1.00
  YS02001901YS02001904 CONDUIT    495.61     0  03:01      0.63    0.77    1.00
  YS02001904YS02001907 CONDUIT    495.15     0  03:00      0.63    0.17    1.00
  YS02001887YS02001890 CONDUIT    495.67     0  03:01      0.63    0.85    1.00
  YS02001652YS02001649 CONDUIT    376.29     0  03:01      0.63    0.19    1.00
  YS02001655YS02001652 CONDUIT    376.28     0  03:01      0.98    0.18    1.00
  YS02001658YS02001655 CONDUIT    398.51     0  02:18      1.22    0.17    1.00
  YS02001661YS02001658 CONDUIT    593.41     0  02:23      1.55    0.23    1.00
  YS02001664YS02001661 CONDUIT    632.02     0  02:40      1.43    0.20    0.76
  YSB1154YSB6556       CONDUIT     25.82     0  03:01      0.17    0.05    0.59
  YSB1174YSB1171       CONDUIT     20.15     0  03:01      0.07    0.03    0.70
  YSB1171HS02004479    CONDUIT     44.91     0  03:02      0.54    0.03    0.55
  HS02004881HS02006253 CONDUIT     84.16     0  03:01      2.14    0.02    0.53
  YS02001793JiankangQianchi CONDUIT    984.27     0  02:59     16.72    0.08    1.00
  YS02001757CaochengTiaoxuchi CONDUIT   1578.84     0  02:35      2.02    0.69    1.00
  WSF200WS02003060     CONDUIT    829.25     0  03:05      1.85    0.18    0.42
  1                    CONDUIT   1221.50     0  03:08      3.51    0.43    0.46
  CC-Pump-1            PUMP       200.00     0  03:00              1.00
  CC-Pump-2            PUMP       200.00     0  05:10              1.00
  JK-Pump-1            PUMP       300.00     0  00:00              1.00
  JK-Pump-2            PUMP       683.00     0  02:10              1.00
  XR-Pump-1            PUMP        95.00     0  00:00              1.00
  XR-Pump-2            PUMP        95.00     0  00:00              1.00
  XR-Pump-3            PUMP        95.00     0  00:00              1.00
  XR-Pump-4            PUMP        95.00     0  00:00              1.00
  
  
  ***************************
  Flow Classification Summary
  ***************************
  
  -------------------------------------------------------------------------------------
                      Adjusted    ---------- Fraction of Time in Flow Class ---------- 
                       /Actual         Up    Down  Sub   Sup   Up    Down  Norm  Inlet 
  Conduit               Length    Dry  Dry   Dry   Crit  Crit  Crit  Crit  Ltd   Ctrl  
  -------------------------------------------------------------------------------------
  WS02003066WSF200        1.00   0.01  0.02  0.00  0.00  0.97  0.00  0.00  0.51  0.00
  WS02006287WS02006284    1.00   0.03  0.01  0.00  0.58  0.37  0.00  0.00  0.62  0.00
  WS02006284WS02006280    1.00   0.04  0.00  0.00  0.00  0.00  0.00  0.96  0.00  0.00
  WS02006280WS02006229    1.00   0.04  0.00  0.00  0.00  0.01  0.00  0.95  0.02  0.00
  WS02006229WS02006228    1.00   0.00  0.00  0.00  1.00  0.00  0.00  0.00  0.00  0.00
  WS02006256WS02006235    1.00   0.00  0.00  0.00  1.00  0.00  0.00  0.00  0.00  0.00
  WS02006253WS02006251    1.00   0.02  0.02  0.00  0.96  0.00  0.01  0.00  0.00  0.00
  WS02006252WS02006251    1.00   0.18  0.00  0.00  0.12  0.00  0.69  0.00  0.00  0.00
  WS02006251WS02006249    1.00   0.00  0.00  0.00  1.00  0.00  0.00  0.00  0.21  0.00
  WS02006249WS02006248    1.00   0.00  0.01  0.00  0.91  0.00  0.08  0.00  0.00  0.00
  WS02006248WS02006247    1.00   0.01  0.00  0.00  0.99  0.00  0.00  0.00  0.15  0.00
  WS02006247WS02006245    1.00   0.00  0.00  0.00  0.99  0.00  0.00  0.00  0.00  0.00
  WS02006245WS02006243    1.00   0.00  0.00  0.00  0.96  0.00  0.00  0.03  0.00  0.00
  WS02006243WS02006242    1.00   0.00  0.00  0.00  1.00  0.00  0.00  0.00  0.23  0.00
  WS02006242WS02006240    1.00   0.00  0.00  0.00  1.00  0.00  0.00  0.00  0.00  0.00
  WS02006240WS02006239    1.00   0.00  0.00  0.00  0.96  0.00  0.00  0.04  0.01  0.00
  WS02006239WS02006238    1.00   0.00  0.00  0.00  1.00  0.00  0.00  0.00  0.12  0.00
  WS02006238WS02006235    1.00   0.00  0.00  0.00  1.00  0.00  0.00  0.00  0.00  0.00
  WS02006235WS02006234    1.00   0.00  0.00  0.00  0.96  0.00  0.04  0.00  0.00  0.00
  WS02006234WS02006232    1.00   0.00  0.00  0.00  1.00  0.00  0.00  0.00  0.08  0.00
  WS02006232WS02006231    1.00   0.00  0.00  0.00  1.00  0.00  0.00  0.00  0.00  0.00
  WS02006231WS02006230    1.00   0.00  0.00  0.00  0.73  0.00  0.27  0.00  0.00  0.00
  WS02006230WS02006229    1.00   0.00  0.00  0.00  1.00  0.00  0.00  0.00  0.00  0.00
  WS02006228WS02006109    1.00   0.00  0.00  0.00  1.00  0.00  0.00  0.00  0.00  0.00
  WS02006116WS02004401    1.00   0.01  0.00  0.00  0.99  0.00  0.00  0.00  0.00  0.00
  WS02006115WS02006116    1.00   0.01  0.00  0.00  0.99  0.00  0.00  0.00  0.00  0.00
  WS02006113WS02006111    1.00   0.01  0.00  0.00  0.02  0.97  0.00  0.00  0.17  0.00
  WS02006112WS02006115    1.00   0.01  0.00  0.00  0.99  0.00  0.00  0.00  0.00  0.00
  WS02006111WS02006112    1.00   0.01  0.00  0.00  0.99  0.00  0.00  0.00  0.91  0.00
  WS02006110WS02006113    1.00   0.00  0.00  0.00  0.99  0.00  0.00  0.00  0.00  0.00
  WS02006109WS02006110    1.00   0.00  0.00  0.00  0.99  0.00  0.00  0.00  0.00  0.00
  WS02004411WS02004412    1.00   0.02  0.00  0.00  0.98  0.00  0.00  0.00  0.00  0.00
  WS02004401WS02004402    1.00   0.01  0.00  0.00  0.99  0.00  0.00  0.00  0.00  0.00
  WS02004413WS02003067    1.00   0.02  0.01  0.00  0.00  0.00  0.98  0.00  0.00  0.00
  WS02004412WS02004413    1.00   0.02  0.00  0.00  0.98  0.00  0.00  0.00  0.01  0.00
  WS02004410WS02004411    1.00   0.02  0.00  0.00  0.98  0.00  0.00  0.00  0.00  0.00
  WS02004409WS02004410    1.00   0.02  0.00  0.00  0.98  0.00  0.00  0.00  0.02  0.00
  WS02004407WS02004409    1.00   0.02  0.00  0.00  0.98  0.00  0.00  0.00  0.95  0.00
  WS02004406WS02004407    1.00   0.00  0.01  0.00  0.98  0.00  0.00  0.00  0.00  0.00
  WS02004405WS02004406    1.00   0.00  0.00  0.00  1.00  0.00  0.00  0.00  0.00  0.00
  WS02004404WS02004405    1.00   0.00  0.00  0.00  1.00  0.00  0.00  0.00  0.00  0.00
  WS02004403WS02004404    1.00   0.00  0.01  0.00  0.99  0.00  0.00  0.00  0.00  0.00
  WS02004402WS02004403    1.00   0.01  0.00  0.00  0.99  0.00  0.00  0.00  0.00  0.00
  WS02004139WS02001211    1.00   0.00  0.00  0.00  1.00  0.00  0.00  0.00  0.00  0.00
  WS02004138WS02004139    1.00   0.00  0.00  0.00  1.00  0.00  0.00  0.00  1.00  0.00
  WS02003067WS02003066    1.00   0.02  0.00  0.00  0.97  0.00  0.00  0.00  0.00  0.00
  WS02001213WS02003059    1.00   0.00  0.00  0.00  1.00  0.00  0.00  0.00  0.00  0.00
  WS02001212WS02001213    1.00   0.00  0.00  0.00  0.91  0.00  0.09  0.00  0.00  0.00
  WS02001211WS02001212    1.00   0.00  0.00  0.00  1.00  0.00  0.00  0.00  0.00  0.00
  WS02003072WS02003073    1.00   0.00  0.00  0.00  0.00  0.00  0.00  1.00  0.00  0.00
  WS02003069WS02003072    1.00   0.00  0.00  0.00  1.00  0.00  0.00  0.00  0.10  0.00
  WS02003060WS02003069    1.00   0.00  0.00  0.00  0.99  0.01  0.00  0.00  0.07  0.00
  WS02003059WS02003060    1.00   0.00  0.00  0.00  1.00  0.00  0.00  0.00  0.01  0.00
  HS02004901HS02004770    1.00   0.04  0.00  0.00  0.96  0.00  0.00  0.00  0.00  0.00
  HS02004876HS02004881    1.00   0.01  0.00  0.00  0.92  0.07  0.00  0.00  0.00  0.00
  HS02004870HS02004876    1.00   0.00  0.00  0.00  0.99  0.00  0.00  0.00  0.95  0.00
  HS02004842HS02004848    1.00   0.00  0.04  0.00  0.96  0.00  0.00  0.00  0.55  0.00
  HS02004837HS02004842    1.00   0.00  0.00  0.00  1.00  0.00  0.00  0.00  0.11  0.00
  HS02004830HS02004837    1.00   0.00  0.00  0.00  1.00  0.00  0.00  0.00  0.99  0.00
  HS02004824HS02004830    1.00   0.00  0.00  0.00  1.00  0.00  0.00  0.00  0.00  0.00
  HS02004817HS02004824    1.00   0.00  0.00  0.00  1.00  0.00  0.00  0.00  1.00  0.00
  HS02004770HS02004777    1.00   0.00  0.04  0.00  0.96  0.00  0.00  0.00  0.02  0.00
  HS02004799HS02004480    1.00   0.00  0.01  0.00  0.96  0.00  0.03  0.00  0.00  0.00
  HS02004792HS02004799    1.00   0.00  0.00  0.00  1.00  0.00  0.00  0.00  0.98  0.00
  HS02004788HS02004792    1.00   0.00  0.00  0.00  1.00  0.00  0.00  0.00  0.98  0.00
  HS02004785HS02004788    1.00   0.00  0.00  0.00  1.00  0.00  0.00  0.00  0.00  0.00
  HS02004777HS02004785    1.00   0.00  0.00  0.00  1.00  0.00  0.00  0.00  0.12  0.00
  HS02004480HS02004478    1.00   0.04  0.00  0.00  0.67  0.00  0.00  0.29  0.00  0.00
  HS02004479HS02004480    1.00   0.01  0.00  0.00  0.99  0.00  0.00  0.00  0.11  0.00
  HS02004862HS02004870    1.00   0.00  0.00  0.00  1.00  0.00  0.00  0.00  0.03  0.00
  HS02004848HS02004852    1.00   0.04  0.00  0.00  0.96  0.00  0.00  0.00  0.62  0.00
  HS02004856HS02004862    1.00   0.00  0.04  0.00  0.96  0.00  0.00  0.00  0.83  0.00
  HS02004852HS02004856    1.00   0.04  0.00  0.00  0.96  0.00  0.00  0.00  0.85  0.00
  HS02004802HS02004478    1.00   0.04  0.00  0.00  0.96  0.00  0.00  0.00  0.02  0.00
  HS02004478WS02006287    1.00   0.04  0.00  0.00  0.75  0.20  0.00  0.00  0.64  0.00
  HS02004817HS02004807    1.00   0.00  0.04  0.00  0.96  0.00  0.00  0.00  0.01  0.00
  HS02004807HS02004802    1.00   0.04  0.00  0.00  0.96  0.00  0.00  0.00  0.00  0.00
  YS02001759YS02001757    1.00   0.00  0.00  0.00  1.00  0.00  0.00  0.00  0.16  0.00
  YS02001762YS02001759    1.00   0.00  0.00  0.00  1.00  0.00  0.00  0.00  0.03  0.00
  YS02001765YS02001762    1.00   0.00  0.00  0.00  1.00  0.00  0.00  0.00  0.13  0.00
  YS02001770YS02001767    1.00   0.00  0.00  0.00  1.00  0.00  0.00  0.00  0.00  0.00
  YS02001774YS02001770    1.00   0.00  0.04  0.00  0.96  0.00  0.00  0.00  0.03  0.00
  YS02001779YS02001774    1.00   0.00  0.00  0.00  1.00  0.00  0.00  0.00  0.18  0.00
  YS02001649YS02001757    1.00   0.00  0.00  0.00  1.00  0.00  0.00  0.00  0.16  0.00
  YS02001767YS02001765    1.00   0.00  0.00  0.00  1.00  0.00  0.00  0.00  0.00  0.00
  YS02006561YS02001783    1.00   0.05  0.00  0.00  0.33  0.62  0.00  0.00  0.48  0.00
  YS02001783YS02001784    1.00   0.00  0.05  0.00  0.95  0.00  0.00  0.00  0.00  0.00
  YS02001784YS02001785    1.00   0.00  0.00  0.00  1.00  0.00  0.00  0.00  0.17  0.00
  YS02001788YS02001790    1.00   0.00  0.00  0.00  0.36  0.64  0.00  0.00  0.41  0.00
  YS02001790YS02001791    1.00   0.00  0.00  0.00  0.33  0.67  0.00  0.00  0.49  0.00
  YS02001791YS02001793    1.00   0.00  0.00  0.00  0.37  0.63  0.00  0.00  0.03  0.00
  YS02001910YS02001907    1.00   0.00  0.00  0.00  0.99  0.00  0.00  0.01  0.12  0.00
  YS02001786YS02001788    1.00   0.00  0.00  0.00  0.34  0.66  0.00  0.00  0.00  0.00
  YS02001915YS02001910    1.00   0.00  0.00  0.00  0.99  0.01  0.00  0.00  0.15  0.00
  YS02001918YS02001915    1.00   0.00  0.00  0.00  0.99  0.01  0.00  0.00  0.55  0.00
  YS02001923YS02001920    1.00   0.00  0.00  0.00  1.00  0.00  0.00  0.00  0.84  0.00
  YS02001926YS02001923    1.00   0.00  0.02  0.00  0.15  0.00  0.83  0.00  0.00  0.00
  YS02001929YS02001926    1.00   0.00  0.04  0.00  0.96  0.00  0.00  0.00  0.77  0.00
  YS02001920YS02001918    1.00   0.00  0.00  0.00  1.00  0.00  0.00  0.00  0.00  0.00
  YS02001629YS02163301    1.00   0.04  0.00  0.00  0.96  0.00  0.00  0.00  0.00  0.00
  YS02001619YS02001622    1.00   0.04  0.00  0.00  0.96  0.00  0.00  0.00  0.00  0.00
  YS02001622YS02001625    1.00   0.04  0.00  0.00  0.96  0.00  0.00  0.00  0.04  0.00
  YS02001625YS02001629    1.00   0.04  0.01  0.00  0.93  0.00  0.02  0.00  0.00  0.00
  YS02163301YS02001633    1.00   0.00  0.04  0.00  0.96  0.00  0.00  0.00  0.00  0.00
  YS02163601YS02164001    1.00   0.00  0.02  0.00  0.98  0.00  0.00  0.00  0.00  0.00
  YS02164001YS02001641    1.00   0.00  0.02  0.00  0.97  0.00  0.00  0.00  0.06  0.00
  YS02001641YS02001644    1.00   0.00  0.00  0.00  1.00  0.00  0.00  0.00  0.00  0.00
  YS02001647YS02001649    1.00   0.00  0.05  0.00  0.95  0.00  0.00  0.00  0.01  0.00
  YS02006553YS02006556    1.00   0.01  0.00  0.00  0.99  0.00  0.00  0.00  0.03  0.00
  YS02006556YS02006558    1.00   0.00  0.00  0.00  1.00  0.00  0.00  0.00  0.00  0.00
  YSB6556YSB1171          1.00   0.02  0.02  0.00  0.96  0.00  0.00  0.00  0.00  0.00
  YS02001907YS02006553    1.00   0.00  0.01  0.00  0.99  0.00  0.00  0.00  0.00  0.00
  YS02006558YS02006561    1.00   0.05  0.00  0.00  0.15  0.80  0.00  0.00  0.48  0.00
  YS02001633YS02163601    1.00   0.00  0.00  0.00  1.00  0.00  0.00  0.00  0.15  0.00
  YS02001644YS02001647    1.00   0.00  0.05  0.00  0.95  0.00  0.00  0.00  0.00  0.00
  YS02001745YS02001748    1.00   0.00  0.00  0.00  0.91  0.01  0.00  0.08  0.04  0.00
  YS02001748YS02001751    1.00   0.00  0.00  0.00  0.97  0.03  0.00  0.00  0.15  0.00
  YS02001751YS02001754    1.00   0.00  0.00  0.00  0.94  0.00  0.00  0.05  0.02  0.00
  YS02001754YS02001757    1.00   0.00  0.00  0.00  1.00  0.00  0.00  0.00  0.18  0.00
  YS02001882YS02001884    1.00   0.04  0.00  0.00  0.96  0.00  0.00  0.00  0.00  0.00
  YS02001884YS02001887    1.00   0.02  0.01  0.00  0.97  0.00  0.00  0.00  0.00  0.00
  YS02001890YS02001895    1.00   0.00  0.04  0.00  0.96  0.00  0.00  0.00  0.00  0.00
  YS02001895YS02001898    1.00   0.04  0.00  0.00  0.95  0.00  0.01  0.00  0.00  0.00
  YS02001898YS02001901    1.00   0.04  0.00  0.00  0.96  0.00  0.00  0.00  0.01  0.00
  YS02001901YS02001904    1.00   0.04  0.00  0.00  0.96  0.00  0.00  0.00  0.00  0.00
  YS02001904YS02001907    1.00   0.00  0.04  0.00  0.96  0.00  0.00  0.00  0.00  0.00
  YS02001887YS02001890    1.00   0.00  0.00  0.00  0.99  0.00  0.01  0.00  0.00  0.00
  YS02001652YS02001649    1.00   0.00  0.00  0.00  1.00  0.00  0.00  0.00  0.16  0.00
  YS02001655YS02001652    1.00   0.00  0.00  0.00  0.94  0.00  0.00  0.05  0.02  0.00
  YS02001658YS02001655    1.00   0.00  0.04  0.00  0.93  0.03  0.00  0.00  0.08  0.00
  YS02001661YS02001658    1.00   0.04  0.00  0.00  0.91  0.05  0.00  0.00  0.09  0.00
  YS02001664YS02001661    1.00   0.04  0.00  0.00  0.92  0.05  0.00  0.00  0.19  0.00
  YSB1154YSB6556          1.00   0.04  0.00  0.00  0.96  0.00  0.00  0.00  0.01  0.00
  YSB1174YSB1171          1.00   0.02  0.01  0.00  0.97  0.00  0.00  0.00  0.00  0.00
  YSB1171HS02004479       1.00   0.01  0.00  0.00  0.98  0.00  0.00  0.00  0.10  0.00
  HS02004881HS02006253    1.00   0.02  0.00  0.00  0.72  0.01  0.00  0.25  0.55  0.00
  YS02001793JiankangQianchi    1.00   0.00  0.00  0.00  0.66  0.34  0.00  0.00  0.42  0.00
  YS02001757CaochengTiaoxuchi    1.00   0.00  0.07  0.00  0.93  0.00  0.00  0.00  0.00  0.00
  WSF200WS02003060        1.00   0.00  0.01  0.00  0.98  0.01  0.00  0.00  0.36  0.00
  1                       1.00   0.00  0.00  0.00  0.00  1.00  0.00  0.00  0.51  0.00
  
  
  *************************
  Conduit Surcharge Summary
  *************************
  
  ----------------------------------------------------------------------------
                                                           Hours        Hours 
                         --------- Hours Full --------   Above Full   Capacity
  Conduit                Both Ends  Upstream  Dnstream   Normal Flow   Limited
  ----------------------------------------------------------------------------
  WS02006229WS02006228        4.06      4.10      4.06      4.86         4.06
  WS02006256WS02006235        5.92      5.92      6.88      4.33         0.01
  WS02006253WS02006251        2.14      2.15      2.23      0.01         0.02
  WS02006252WS02006251        1.76      1.76      2.53      2.06         0.01
  WS02006251WS02006249        2.17      2.17      2.31      1.32         1.08
  WS02006249WS02006248        2.23      2.23      2.31      3.96         0.01
  WS02006248WS02006247        2.31      2.31      2.63      0.01         0.01
  WS02006247WS02006245        2.62      2.70      2.62      4.23         2.59
  WS02006245WS02006243        2.70      2.70      2.87      0.50         0.58
  WS02006243WS02006242        2.94      2.94      3.20      0.01         0.01
  WS02006242WS02006240        3.14      3.14      3.35      2.41         0.01
  WS02006240WS02006239        3.16      3.17      3.24      1.43         1.03
  WS02006239WS02006238        3.42      3.42      3.64      1.53         1.21
  WS02006238WS02006235        3.62      3.62      3.76      0.01         0.02
  WS02006235WS02006234        3.18      3.18      3.57      5.85         0.01
  WS02006234WS02006232        3.50      3.50      3.98      1.12         1.11
  WS02006232WS02006231        2.34      2.34      3.98      1.29         0.01
  WS02006231WS02006230        1.66      1.66      2.46      5.97         0.01
  WS02006230WS02006229        4.40      4.67      4.40      6.19         4.40
  WS02006228WS02006109        4.08      4.19      4.08      5.58         4.08
  WS02006116WS02004401        0.28      0.28      0.29      0.24         0.24
[...]
  YS02001765YS02001762        5.84      5.84      5.87      0.01         0.01
  YS02001770YS02001767        5.81      5.81      5.81      0.19         0.80
  YS02001774YS02001770        5.80      5.80      5.86      0.01         0.01
  YS02001779YS02001774        5.67      5.67      5.86      0.01         0.01
  YS02001649YS02001757        5.87      5.87      5.98      0.01         0.01
  YS02001767YS02001765        5.81      5.81      5.84      0.01         0.01
  YS02006561YS02001783        0.75      0.75      1.00      0.01         0.01
  YS02001783YS02001784        0.97      1.00      0.98      1.40         0.97
  YS02001784YS02001785        0.92      0.98      0.92      2.40         0.92
  YS02001788YS02001790        0.87      0.87      1.64      0.01         0.01
  YS02001790YS02001791        1.64      1.64      1.76      0.85         0.83
  YS02001791YS02001793        1.76      1.76      2.18      0.01         0.01
  YS02001910YS02001907        1.05      1.05      1.76      0.01         0.01
  YS02001786YS02001788        0.87      0.92      0.87      2.01         0.87
  YS02001915YS02001910        0.87      0.87      1.05      0.01         0.01
  YS02001918YS02001915        0.69      0.69      0.87      0.01         0.01
  YS02001923YS02001920        0.52      0.52      0.72      0.01         0.01
  YS02001920YS02001918        0.69      0.69      0.72      0.01         0.01
  YS02001629YS02163301        5.80      5.80      5.81      0.01         0.01
  YS02001619YS02001622        5.47      5.47      5.50      0.01         0.01
  YS02001622YS02001625        5.50      5.50      5.76      0.01         0.01
  YS02001625YS02001629        5.47      5.47      5.76      0.01         0.01
  YS02163301YS02001633        5.81      5.81      5.84      0.01         0.01
  YS02163601YS02164001        5.84      5.84      5.87      0.01         0.01
  YS02164001YS02001641        5.84      5.84      5.85      0.01         0.03
  YS02001641YS02001644        5.85      5.85      5.85      1.52         1.61
  YS02001647YS02001649        5.75      5.75      5.87      0.01         0.01
  YS02006553YS02006556        1.30      1.30      1.85      0.01         0.01
  YS02006556YS02006558        1.53      1.53      1.92      0.01         0.01
  YS02001907YS02006553        2.41      2.41      2.63      0.01         0.01
  YS02006558YS02006561        0.88      1.26      0.88      2.23         0.88
  YS02001633YS02163601        5.83      5.83      5.87      0.01         0.01
  YS02001644YS02001647        5.75      5.75      5.85      0.01         0.01
  YS02001745YS02001748        0.01      0.01      5.30      0.01         0.01
  YS02001748YS02001751        5.36      5.36      5.48      0.01         0.01
  YS02001751YS02001754        5.48      5.48      5.69      0.01         0.01
  YS02001754YS02001757        5.74      5.74      5.98      0.01         0.01
  YS02001882YS02001884        0.88      0.88      0.91      0.01         0.01
  YS02001884YS02001887        0.94      0.94      0.96      0.01         0.01
  YS02001890YS02001895        0.86      0.86      1.07      0.01         0.01
  YS02001895YS02001898        0.85      0.85      0.86      0.01         0.01
  YS02001898YS02001901        0.87      0.87      0.94      0.01         0.01
  YS02001901YS02001904        0.92      0.92      0.94      0.01         0.01
  YS02001904YS02001907        0.92      0.92      1.88      0.01         0.01
  YS02001887YS02001890        1.00      1.00      1.03      0.01         0.01
  YS02001652YS02001649        5.76      5.76      5.87      0.01         0.01
  YS02001655YS02001652        5.50      5.50      5.73      0.01         0.01
  YS02001658YS02001655        5.33      5.33      5.50      0.01         0.01
  YS02001661YS02001658        0.18      0.18      5.33      0.01         0.01
  YS02001664YS02001661        0.01      0.01      1.06      0.01         0.01
  HS02004881HS02006253        0.01      0.01      1.13      0.01         0.01
  YS02001793JiankangQianchi        2.07      2.07      3.98      0.01         0.01
  YS02001757CaochengTiaoxuchi        5.21      5.21      5.98      0.01         0.01
  
  
  ***************
  Pumping Summary
  ***************
  
  ---------------------------------------------------------------------------------------------------------
                                                  Min       Avg       Max     Total     Power    % Time Off
                        Percent   Number of      Flow      Flow      Flow    Volume     Usage    Pump Curve
  Pump                 Utilized   Start-Ups       LPS       LPS       LPS  10^6 ltr     Kw-hr    Low   High
  ---------------------------------------------------------------------------------------------------------
  CC-Pump-1               61.70           2      0.00    178.81    200.00     3.060      3.16    0.0    0.0
  CC-Pump-2               36.16           6      0.00    106.47    200.00     1.380      1.92    0.0    0.0
  JK-Pump-1               59.57           4      0.00    229.38    300.00     3.666     58.15    0.0    0.0
  JK-Pump-2               53.18           4      0.00    441.76    683.00     6.284     89.50    0.0   95.5
  XR-Pump-1               97.87           2      0.00     93.32     95.00     2.508     23.97    0.0    0.0
  XR-Pump-2               97.87           2      0.00     93.32     95.00     2.508     23.97    0.0    0.0
  XR-Pump-3               95.75           3      0.00     93.33     95.00     2.451     22.68    0.0    0.0
  XR-Pump-4               95.75           3      0.00     93.33     95.00     2.451     22.68    0.0    0.0
  
  
  ***************************
  Link Pollutant Load Summary
  ***************************
  
  ------------------------------------------------------------------------------------------
                                 COD            SS            TN            TP         NH4-N
  Link                            kg            kg            kg            kg            kg
  ------------------------------------------------------------------------------------------
  WS02003066WSF200           818.508      1504.430        21.713         1.902        11.455
  WS02006287WS02006284       268.057       498.202         9.347         0.943         5.215
  WS02006284WS02006280       268.541       498.981         9.394         0.949         5.244
  WS02006280WS02006229       268.502       498.906         9.392         0.949         5.243
  WS02006229WS02006228       831.106      1527.002        21.459         1.844        11.239
  WS02006256WS02006235       192.450       353.870         4.180         0.322         2.106
  WS02006253WS02006251        51.839        99.793         1.165         0.088         0.579
  WS02006252WS02006251       360.155       649.594         7.609         0.549         3.746
  WS02006251WS02006249       403.011       733.304         8.601         0.625         4.245
  WS02006249WS02006248       383.833       698.416         8.196         0.596         4.045
  WS02006248WS02006247       383.286       697.493         8.184         0.595         4.039
  WS02006247WS02006245       382.469       696.042         8.166         0.594         4.030
  WS02006245WS02006243       381.497       694.387         8.141         0.592         4.017
  WS02006243WS02006242       380.695       692.988         8.125         0.591         4.010
  WS02006242WS02006240       380.090       691.982         8.111         0.590         4.003
  WS02006240WS02006239       379.907       691.693         8.109         0.590         4.002
  WS02006239WS02006238       380.247       692.140         8.134         0.593         4.017
  WS02006238WS02006235       380.079       691.625         8.139         0.594         4.021
  WS02006235WS02006234       568.179      1037.907        12.198         0.905         6.063
  WS02006234WS02006232       567.243      1036.255        12.181         0.905         6.055
  WS02006232WS02006231       566.263      1034.522        12.159         0.903         6.044
  WS02006231WS02006230       565.252      1032.732        12.138         0.901         6.034
  WS02006230WS02006229       563.806      1030.214        12.101         0.898         6.015
  WS02006228WS02006109       829.767      1524.647        21.427         1.842        11.223
  WS02006116WS02004401       837.307      1537.728        22.142         1.934        11.670
  WS02006115WS02006116       839.275      1541.187        22.193         1.938        11.697
  WS02006113WS02006111       834.400      1531.468        22.138         1.935        11.678
  WS02006112WS02006115       841.126      1544.440        22.247         1.943        11.726
  WS02006111WS02006112       833.619      1530.079        22.120         1.933        11.668
  WS02006110WS02006113       835.304      1533.050        22.166         1.937        11.692
  WS02006109WS02006110       836.855      1535.761        22.214         1.942        11.719
  WS02004411WS02004412       823.104      1512.520        21.854         1.915        11.532
  WS02004401WS02004402       835.497      1534.547        22.090         1.929        11.643
  WS02004413WS02003067       819.500      1506.188        21.737         1.904        11.467
  WS02004412WS02004413       821.319      1509.381        21.803         1.910        11.505
  WS02004410WS02004411       824.701      1515.331        21.897         1.918        11.555
  WS02004409WS02004410       826.305      1518.154        21.943         1.922        11.579
  WS02004407WS02004409       827.823      1520.828        21.981         1.926        11.598
  WS02004406WS02004407       828.454      1521.945        21.991         1.926        11.603
  WS02004405WS02004406       830.566      1525.646        22.059         1.933        11.641
  WS02004404WS02004405       832.383      1528.887        22.082         1.933        11.649
  WS02004403WS02004404       832.270      1528.875        22.001         1.922        11.595
  WS02004402WS02004403       833.738      1531.458        22.043         1.926        11.618
  WS02004139WS02001211      1398.798      2304.578       116.312        14.243        71.828
  WS02004138WS02004139      1405.428      2315.523       116.848        14.309        72.158
  WS02003067WS02003066       818.777      1504.910        21.721         1.903        11.460
  WS02001213WS02003059      1431.174      2355.641       119.639        14.663        73.918
  WS02001212WS02001213      1440.725      2371.320       120.440        14.761        74.413
  WS02001211WS02001212      1442.916      2374.884       120.631        14.785        74.531
  WS02003072WS02003073      2348.589      4017.162       151.270        17.811        91.589
  WS02003069WS02003072      2353.985      4026.046       151.694        17.863        91.850
  WS02003060WS02003069      2356.872      4030.994       151.849        17.880        91.942
  WS02003059WS02003060      1427.862      2350.116       119.388        14.633        73.764
  HS02004901HS02004770        10.270        19.477         0.195         0.015         0.091
  HS02004876HS02004881        37.318        72.579         0.843         0.062         0.416
  HS02004870HS02004876        28.160        54.628         0.678         0.051         0.338
  HS02004842HS02004848         5.466        10.276         0.115         0.008         0.053
  HS02004837HS02004842        10.072        17.582         0.584         0.067         0.347
  HS02004830HS02004837        65.640       112.705         4.557         0.546         2.785
  HS02004824HS02004830        66.391       113.908         4.628         0.555         2.830
  HS02004817HS02004824        88.207       156.976         5.083         0.584         3.051
  HS02004770HS02004777        39.296        75.466         0.819         0.055         0.377
  HS02004799HS02004480       131.410       245.372         3.680         0.335         1.933
  HS02004792HS02004799       119.086       220.663         3.497         0.327         1.853
  HS02004788HS02004792        68.396       126.857         2.388         0.235         1.309
  HS02004785HS02004788        40.733        77.760         0.969         0.074         0.471
  HS02004777HS02004785        40.059        76.666         0.909         0.067         0.434
  HS02004480HS02004478       165.952       312.595         4.244         0.375         2.196
  HS02004479HS02004480        38.147        72.976         0.884         0.079         0.462
  HS02004862HS02004870        21.016        40.117         0.536         0.043         0.270
  HS02004848HS02004852         8.057        15.279         0.167         0.011         0.077
  HS02004856HS02004862        14.072        27.340         0.284         0.019         0.133
  HS02004852HS02004856         8.064        15.290         0.167         0.011         0.077
  HS02004802HS02004478       102.889       186.890         5.163         0.576         3.055
  HS02004478WS02006287       268.256       498.538         9.364         0.945         5.225
  HS02004817HS02004807        86.890       154.864         4.957         0.568         2.973
  HS02004807HS02004802       103.115       187.244         5.195         0.580         3.075
  YS02001759YS02001757       332.980       604.820         6.697         0.463         3.273
  YS02001762YS02001759       159.633       291.057         3.417         0.240         1.693
  YS02001765YS02001762       159.784       291.773         3.440         0.242         1.707
  YS02001770YS02001767       159.204       292.055         3.236         0.212         1.571
  YS02001774YS02001770       181.362       348.725         3.512         0.232         1.697
  YS02001779YS02001774       180.517       347.005         3.604         0.246         1.761
  YS02001649YS02001757       327.078       581.951         6.590         0.457         3.163
  YS02001767YS02001765       160.407       293.290         3.468         0.245         1.722
  YS02006561YS02001783       936.354      1717.113        19.849         1.490         9.908
  YS02001783YS02001784       936.184      1716.823        19.844         1.490         9.905
  YS02001784YS02001785       943.515      1728.563        20.557         1.579        10.351
  YS02001788YS02001790       944.052      1729.398        20.630         1.588        10.397
  YS02001790YS02001791       945.088      1731.052        20.738         1.602        10.465
  YS02001791YS02001793       945.010      1730.911        20.734         1.602        10.463
  YS02001910YS02001907       330.193       599.346         8.248         0.644         4.264
  YS02001786YS02001788       943.688      1728.837        20.584         1.583        10.369
  YS02001915YS02001910       330.289       599.501         8.205         0.638         4.234
  YS02001918YS02001915       160.495       279.047         4.686         0.436         2.552
  YS02001923YS02001920       137.928       241.954         2.692         0.190         1.313
  YS02001926YS02001923       136.861       240.180         2.617         0.181         1.267
  YS02001929YS02001926       136.174       239.038         2.555         0.174         1.228
  YS02001920YS02001918       158.433       274.924         4.619         0.430         2.515
  YS02001629YS02163301       103.604       183.574         2.173         0.140         1.013
  YS02001619YS02001622       146.404       262.947         3.031         0.197         1.414
  YS02001622YS02001625       145.254       261.129         3.003         0.195         1.401
  YS02001625YS02001629       104.673       185.341         2.196         0.142         1.024
  YS02163301YS02001633       103.333       183.115         2.166         0.140         1.010
  YS02163601YS02164001       362.155       646.397         7.118         0.503         3.405
  YS02164001YS02001641       361.688       645.610         7.099         0.501         3.394
  YS02001641YS02001644       361.949       645.973         7.099         0.500         3.393
  YS02001647YS02001649       378.061       680.978         7.513         0.521         3.588
  YS02006553YS02006556       657.941      1200.914        14.252         1.097         7.190
  YS02006556YS02006558       657.882      1200.787        14.220         1.092         7.168
  YSB6556YSB1171              21.953        42.198         0.451         0.038         0.229
  YS02001907YS02006553       658.064      1201.170        14.266         1.099         7.199
  YS02006558YS02006561       936.360      1717.128        19.848         1.490         9.907
  YS02001633YS02163601       362.843       647.464         7.098         0.499         3.388
  YS02001644YS02001647       383.474       690.652         7.601         0.528         3.629
  YS02001745YS02001748       210.512       387.142         4.775         0.336         2.390
  YS02001748YS02001751       208.772       383.780         4.837         0.348         2.438
  YS02001751YS02001754       207.776       382.142         4.818         0.347         2.429
  YS02001754YS02001757       208.550       383.310         4.982         0.369         2.536
  YS02001882YS02001884         3.146         5.448         0.063         0.005         0.031
  YS02001884YS02001887         6.876        12.186         0.134         0.010         0.067
  YS02001890YS02001895       389.351       720.433         7.187         0.539         3.507
  YS02001895YS02001898       389.161       720.163         7.180         0.539         3.503
  YS02001898YS02001901       388.929       719.759         7.175         0.538         3.501
  YS02001901YS02001904       388.755       719.501         7.182         0.539         3.506
  YS02001904YS02001907       388.947       719.782         7.235         0.546         3.540
  YS02001887YS02001890       390.167       721.659         7.242         0.546         3.540
  YS02001652YS02001649       151.480       277.196         3.090         0.222         1.449
  YS02001655YS02001652       152.071       278.154         3.106         0.224         1.457
  YS02001658YS02001655       151.588       277.373         3.019         0.212         1.400
  YS02001661YS02001658       156.094       285.405         3.111         0.218         1.442
  YS02001664YS02001661       176.239       319.236         3.553         0.248         1.645
  YSB1154YSB6556              21.532        41.528         0.402         0.032         0.198
  YSB1174YSB1171              14.655        28.292         0.298         0.024         0.150
  YSB1171HS02004479           38.106        72.911         0.888         0.079         0.465
  HS02004881HS02006253        42.384        82.802         0.928         0.067         0.456
  YS02001793JiankangQianchi       945.450      1731.541        20.766         1.605        10.482
  YS02001757CaochengTiaoxuchi       595.375      1063.381        12.696         0.910         6.248
  WSF200WS02003060           818.242      1503.948        21.715         1.902        11.458
  1                         2354.733      4026.428       152.064        17.914        92.094
  CC-Pump-1                  250.950       453.226         5.297         0.383         2.609
  CC-Pump-2                  109.199       196.359         2.310         0.166         1.136
  JK-Pump-1                  240.251       445.285         5.074         0.385         2.538
  JK-Pump-2                  498.681       925.064        10.553         0.801         5.281
  XR-Pump-1                  357.771       589.180        29.813         3.652        18.414
  XR-Pump-2                  357.771       589.180        29.813         3.652        18.414
  XR-Pump-3                  346.867       571.732        28.774         3.522        17.766
  XR-Pump-4                  346.867       571.732        28.774         3.522        17.766
  

  Analysis begun on:  Tue Jul 13 18:41:52 2021
  Analysis ended on:  Tue Jul 13 18:41:56 2021
  Total elapsed time: 00:00:04