
  EPA STORM WATER MANAGEMENT MODEL - VERSION 5.1 (Build 5.3.0.dev0)
  --------------------------------------------------------------

  WARNING 04: minimum elevation drop used for Conduit WS02004404WS02004405
  WARNING 03: negative offset ignored for Link YS02001904YS02001907
  
  *********************************************************
  NOTE: The summary statistics displayed in this report are
  based on results found at every computational time step,  
  not just on results from each reporting time step.
  *********************************************************
  
  ****************
  Analysis Options
  ****************
  Flow Units ............... LPS
  Process Models:
    Rainfall/Runoff ........ YES
    RDII ................... NO
    Snowmelt ............... NO
    Groundwater ............ NO
    Flow Routing ........... YES
    Ponding Allowed ........ NO
    Water Quality .......... YES
  Infiltration Method ...... HORTON
  Flow Routing Method ...... DYNWAVE
  Surcharge Method ......... EXTRAN
  Starting Date ............ 08/28/2015 08:00:00
  Ending Date .............. 08/28/2015 15:50:00
  Antecedent Dry Days ...... 8.0
  Report Time Step ......... 00:01:00
  Wet Time Step ............ 00:01:00
  Dry Time Step ............ 00:01:00
  Routing Time Step ........ 5.00 sec
  Variable Time Step ....... YES
  Maximum Trials ........... 8
  Number of Threads ........ 4
  Head Tolerance ........... 0.001500 m
  
  
  **************************        Volume         Depth
  Runoff Quantity Continuity     hectare-m            mm
  **************************     ---------       -------
  Total Precipitation ......         6.144        13.452
  Evaporation Loss .........         0.000         0.000
  Infiltration Loss ........         1.064         2.328
  Surface Runoff ...........         4.147         9.079
  Final Storage ............         0.935         2.047
  Continuity Error (%) .....        -0.020
  
  
  **************************           COD            SS            TN            TP         NH4-N
  Runoff Quality Continuity             kg            kg            kg            kg            kg
  **************************    ----------    ----------    ----------    ----------    ----------
  Initial Buildup ..........     41378.656     70582.865      1804.177       168.684      1032.807
  Surface Buildup ..........        21.799        40.924         2.400         0.218         1.395
  Wet Deposition ...........         0.000         0.000         0.000         0.000         0.000
  Sweeping Removal .........         0.000         0.000         0.000         0.000         0.000
  Infiltration Loss ........        97.311       184.943         1.849         0.130         0.881
  BMP Removal ..............         0.000         0.000         0.000         0.000         0.000
  Surface Runoff ...........      3769.819      7064.251        72.781         4.964        34.599
  Remaining Buildup ........     37531.916     63371.884      1731.919       163.806       998.709
  Continuity Error (%) .....         0.003         0.004         0.002         0.001         0.001
  
  
  **************************        Volume        Volume
  Flow Routing Continuity        hectare-m      10^6 ltr
  **************************     ---------     ---------
  Dry Weather Inflow .......         0.616         6.165
  Wet Weather Inflow .......         4.145        41.451
  Groundwater Inflow .......         0.000         0.000
  RDII Inflow ..............         0.000         0.000
  External Inflow ..........         0.102         1.024
  External Outflow .........         2.058        20.585
  Flooding Loss ............         2.378        23.781
  Evaporation Loss .........         0.000         0.000
  Exfiltration Loss ........         0.000         0.000
  Initial Stored Volume ....         0.076         0.761
  Final Stored Volume ......         0.630         6.299
  Continuity Error (%) .....        -2.561
  
  
  **************************           COD            SS            TN            TP         NH4-N
  Quality Routing Continuity            kg            kg            kg            kg            kg
  **************************    ----------    ----------    ----------    ----------    ----------
  Dry Weather Inflow .......      1541.201      2465.922       147.955        18.494        92.472
  Wet Weather Inflow .......      3769.005      7062.893        72.763         4.963        34.591
  Groundwater Inflow .......         0.000         0.000         0.000         0.000         0.000
  RDII Inflow ..............         0.000         0.000         0.000         0.000         0.000
  External Inflow ..........       183.418       293.469        17.608         2.201        11.005
  External Outflow .........      2433.649      4218.172       149.171        17.414        89.909
  Flooding Loss ............      2403.039      4483.018        62.119         5.448        32.718
  Exfiltration Loss ........         0.000         0.000         0.000         0.000         0.000
  Mass Reacted .............         0.000         0.000         0.000         0.000         0.000
  Initial Stored Mass ......         0.000         0.000         0.000         0.000         0.000
  Final Stored Mass ........       527.511       900.921        23.983         2.568        13.915
  Continuity Error (%) .....         2.356         2.242         1.281         0.893         1.106
  
  
  *************************
  Highest Continuity Errors
  *************************
  Node HS02004842 (13.41%)
  Node JK-storage (-11.82%)
  Node YS02001884 (10.62%)
  Node HS02004817 (2.53%)
  Node YSB1171 (2.46%)
  
  
  ***************************
  Time-Step Critical Elements
  ***************************
  Link WS02006252WS02006251 (64.85%)
  Link WS02006280WS02006229 (9.99%)
  Link WS02004404WS02004405 (5.38%)
  Link YS02001793JiankangQianchi (3.64%)
  Link WS02006238WS02006235 (3.05%)
  
  
  ********************************
  Highest Flow Instability Indexes
  ********************************
  Link WS02006113WS02006111 (39)
  Link YS02163601YS02164001 (32)
  Link YS02001629YS02163301 (32)
  Link YS02163301YS02001633 (32)
  Link YS02001619YS02001622 (31)
  
  
  *************************
  Routing Time Step Summary
  *************************
  Minimum Time Step           :     0.50 sec
  Average Time Step           :     1.15 sec
  Maximum Time Step           :     5.00 sec
  Percent in Steady State     :    -0.00
  Average Iterations per Step :     4.09
  Percent Not Converging      :    16.74
  
  
  ***************************
  Subcatchment Runoff Summary
  ***************************
  
  ------------------------------------------------------------------------------------------------------------------------------
                            Total      Total      Total      Total     Imperv       Perv      Total       Total     Peak  Runoff
                           Precip      Runon       Evap      Infil     Runoff     Runoff     Runoff      Runoff   Runoff   Coeff
  Subcatchment                 mm         mm         mm         mm         mm         mm         mm    10^6 ltr      LPS
  ------------------------------------------------------------------------------------------------------------------------------
  sub0                      13.45       0.00       0.00       0.63      12.47       0.31      12.77        0.01     3.75   0.950
  sub1                      13.45       0.00       0.00       1.12      11.88       0.36      12.24        0.08    25.66   0.910
  sub2                      13.45       0.00       0.00       4.44       8.39       0.53       8.92        0.08    25.29   0.663
  sub3                      13.45       0.00       0.00       4.56       8.35       0.42       8.77        0.20    55.75   0.652
  sub4                      13.45       0.00       0.00       1.22      11.71       0.26      11.97        0.25    65.52   0.890
  sub5                      13.45       0.00       0.00       0.68      12.41       0.26      12.67        0.14    44.76   0.942
  sub7                      13.45       0.00       0.00       0.86      12.18       0.35      12.53        0.04    14.26   0.931
  sub8                      13.45       0.00       0.00       0.87      12.17       0.34      12.50        0.08    26.26   0.930
  sub9                      13.45       0.00       0.00       0.88      12.17       0.33      12.50        0.06    19.64   0.929
  sub10                     13.45       0.00       0.00       0.78      12.29       0.29      12.58        0.14    44.00   0.935
  sub11                     13.45       0.00       0.00       0.77      12.30       0.31      12.61        0.15    48.45   0.938
  sub12                     13.45       0.00       0.00       1.25      11.66       0.50      12.16        0.11    38.10   0.904
  sub14                     13.45       0.00       0.00       0.88      12.16       0.33      12.49        0.12    38.67   0.929
  sub15                     13.45       0.00       0.00       3.37       9.35       0.66      10.01        0.17    57.01   0.744
  sub16                     13.45       0.00       0.00       3.56       8.97       0.88       9.85        0.10    37.63   0.732
  sub17                     13.45       0.00       0.00       3.47       9.10       0.84       9.94        0.09    30.67   0.739
  sub22                     13.45       0.00       0.00       4.98       7.63       0.81       8.43        0.53   184.54   0.627
  sub23                     13.45       0.00       0.00       4.17       8.43       0.81       9.24        0.44   154.22   0.687
  sub60                     13.45       0.00       0.00       1.53       9.85       0.09       9.93        3.01   438.14   0.738
  sub61                     13.45       0.00       0.00       2.16       9.95       0.12      10.07        3.11   536.45   0.749
  sub62                     13.45       0.00       0.00       0.98      10.84       0.10      10.94        3.36   552.35   0.813
  sub63                     13.45       0.00       0.00       3.77       8.69       0.14       8.83        2.67   492.63   0.656
  sub64                     13.45       0.00       0.00       1.93       9.45       0.09       9.54        2.90   416.72   0.709
  sub65                     13.45       0.00       0.00       1.67       9.61       0.08       9.70        2.98   423.09   0.721
  sub66                     13.45       0.00       0.00       3.81       8.10       0.09       8.18        2.51   380.66   0.608
  sub67                     13.45       0.00       0.00       0.95      11.38       0.13      11.51        3.55   679.52   0.856
  sub68                     13.45       0.00       0.00       1.75      10.45       0.13      10.59        3.26   586.26   0.787
  sub69                     13.45       0.00       0.00       1.83      10.79       0.19      10.98        2.57   544.72   0.816
  sub70                     13.45      11.20       0.00       7.51      14.65       0.88      15.52        3.55   494.81   0.630
  sub71                     13.45       0.00       0.00       0.99      10.58       0.09      10.67        2.52   389.24   0.793
  sub72                     13.45       0.00       0.00       0.89       8.56       0.05       8.61        1.75   189.18   0.640
  1                         13.45      15.11       0.00       1.37      16.56       4.63      21.19        4.98   484.42   0.742
  2                         13.45       0.00       0.00       3.02       3.21       1.96       5.17        2.07   340.45   0.384
  
  
  ****************************
  Subcatchment Washoff Summary
  ****************************
  
  ------------------------------------------------------------------------------------------
                                 COD            SS            TN            TP         NH4-N
  Subcatchment                    kg            kg            kg            kg            kg
  ------------------------------------------------------------------------------------------
  sub0                         2.670         5.197         0.046         0.004         0.022
  sub1                        11.241        22.423         0.210         0.015         0.101
  sub2                         6.894        13.384         0.145         0.010         0.067
  sub3                        16.924        32.573         0.350         0.024         0.161
  sub4                        25.772        51.904         0.510         0.031         0.245
  sub5                        25.778        50.682         0.460         0.035         0.223
  sub7                         5.751        11.638         0.108         0.007         0.052
  sub8                         8.581        17.755         0.171         0.010         0.082
  sub9                         7.353        15.005         0.142         0.009         0.068
  sub10                       21.202        42.223         0.389         0.028         0.188
  sub11                       20.657        41.614         0.386         0.026         0.187
  sub12                       17.724        35.094         0.321         0.024         0.155
  sub14                       15.732        31.800         0.298         0.020         0.144
  sub15                       20.231        39.321         0.389         0.028         0.182
  sub16                       13.129        25.518         0.249         0.019         0.117
  sub17                       12.049        23.208         0.222         0.017         0.105
  sub22                       62.582       119.432         1.186         0.090         0.554
  sub23                       36.683        72.439         0.776         0.051         0.357
  sub60                      243.520       456.962         4.842         0.298         2.321
  sub61                      302.151       564.434         5.627         0.386         2.710
  sub62                      313.722       596.076         6.119         0.388         2.938
  sub63                      223.275       410.850         4.468         0.314         2.075
  sub64                      305.877       553.773         5.626         0.410         2.687
  sub65                      313.037       569.066         5.795         0.415         2.772
  sub66                      176.068       321.340         3.608         0.236         1.687
  sub67                      466.222       877.505         8.365         0.616         4.045
  sub68                      332.037       626.413         6.347         0.429         3.034
  sub69                      298.258       568.561         5.590         0.393         2.674
  sub70                      502.897       962.303        10.037         0.699         4.710
  sub71                      206.745       396.330         4.242         0.246         2.030
  sub72                      164.385       293.107         3.069         0.210         1.476
  1                          349.075       671.606         7.102         0.495         3.297
  2                           42.749        75.577         1.214         0.073         0.518
  ------------------------------------------------------------------------------------------
  System                    4570.974      8595.115        88.408         6.057        41.983
  
  
  ******************
  Node Depth Summary
  ******************
  
  ---------------------------------------------------------------------------------
                                 Average  Maximum  Maximum  Time of Max    Reported
                                   Depth    Depth      HGL   Occurrence   Max Depth
  Node                 Type       Meters   Meters   Meters  days hr:min      Meters
  ---------------------------------------------------------------------------------
  WS02001211           JUNCTION     0.77     0.85     5.68     0  03:08        0.85
  WS02001212           JUNCTION     0.49     0.58     5.64     0  03:07        0.58
  WS02001213           JUNCTION     0.73     0.85     5.61     0  03:06        0.85
  WS02003069           JUNCTION     0.54     0.72     5.30     0  03:06        0.72
  WS02003072           JUNCTION     0.60     0.76     5.13     0  03:06        0.76
  WS02003073           JUNCTION     0.37     0.48     4.54     0  03:07        0.48
  WS02003060           JUNCTION     0.48     0.63     5.56     0  03:06        0.63
  WS02003066           JUNCTION     0.26     0.39     5.94     0  03:03        0.39
  WS02003059           JUNCTION     0.78     0.91     5.59     0  03:06        0.91
  WS02003067           JUNCTION     0.63     0.82     6.14     0  03:03        0.82
  WS02004401           JUNCTION     0.76     1.26     7.26     0  03:00        1.24
  WS02004402           JUNCTION     0.79     1.25     7.21     0  03:00        1.22
  WS02004403           JUNCTION     0.81     1.22     7.15     0  02:59        1.20
  WS02004404           JUNCTION     0.88     1.27     7.12     0  02:59        1.25
  WS02004406           JUNCTION     0.88     1.18     7.01     0  02:59        1.17
  WS02004409           JUNCTION     0.58     0.96     6.73     0  03:03        0.96
  WS02004410           JUNCTION     0.59     0.95     6.67     0  03:03        0.95
  WS02004411           JUNCTION     0.60     0.93     6.61     0  03:03        0.93
  WS02004412           JUNCTION     0.61     0.90     6.54     0  03:03        0.90
  WS02004413           JUNCTION     0.76     1.02     6.49     0  03:03        1.02
  WS02004405           JUNCTION     0.87     1.25     7.10     0  02:59        1.21
  WS02006109           JUNCTION     0.86     1.65     8.27     0  03:00        1.64
  WS02006110           JUNCTION     0.83     1.46     8.05     0  03:00        1.44
  WS02006111           JUNCTION     0.26     0.93     7.64     0  02:59        0.88
  WS02006112           JUNCTION     0.95     1.60     7.49     0  03:00        1.55
  WS02006113           JUNCTION     0.40     0.96     7.85     0  03:00        0.92
  WS02006115           JUNCTION     0.66     1.26     7.39     0  03:00        1.22
  WS02006116           JUNCTION     0.74     1.30     7.34     0  03:00        1.26
  WS02006230           JUNCTION     0.90     1.87     8.62     0  03:00        1.86
  WS02006231           JUNCTION     0.64     1.52     8.65     0  03:00        1.52
  WS02006232           JUNCTION     0.79     1.63     8.67     0  03:00        1.61
  WS02006234           JUNCTION     0.74     1.53     8.69     0  03:00        1.52
  WS02006235           JUNCTION     0.78     1.55     8.71     0  03:00        1.53
  WS02006238           JUNCTION     0.81     1.57     8.71     0  03:00        1.55
  WS02006240           JUNCTION     0.72     1.41     8.70     0  03:00        1.40
  WS02006242           JUNCTION     0.78     1.44     8.70     0  03:00        1.43
  WS02006243           JUNCTION     0.67     1.28     8.70     0  03:00        1.27
  WS02006245           JUNCTION     0.65     1.22     8.70     0  03:00        1.21
  WS02006247           JUNCTION     0.66     1.20     8.70     0  03:00        1.19
  WS02006248           JUNCTION     0.60     1.10     8.69     0  02:58        1.10
  WS02006249           JUNCTION     0.62     1.09     8.69     0  02:57        1.09
  WS02006239           JUNCTION     0.77     1.50     8.71     0  03:00        1.49
  WS02006251           JUNCTION     0.60     1.60     9.27     0  02:57        1.26
  WS02006252           JUNCTION     0.36     1.09     9.33     0  02:57        0.72
  WS02006253           JUNCTION     0.63     1.56     9.21     0  02:57        1.37
  WS02006256           JUNCTION     1.76     2.35     9.28     0  00:00        2.35
  WS02004138           JUNCTION     0.19     0.20     7.45     0  00:00        0.19
  WS02004139           JUNCTION     0.72     0.79     5.70     0  03:08        0.79
  WS02004407           JUNCTION     0.26     0.40     6.71     0  03:01        0.40
  WS02006228           JUNCTION     0.89     1.82     8.47     0  03:00        1.82
  WS02006229           JUNCTION     0.88     1.89     8.59     0  03:00        1.89
  WS02006280           JUNCTION     0.07     0.30     8.57     0  02:59        0.29
  WS02006284           JUNCTION     0.37     0.65     9.04     0  03:02        0.64
  WS02006287           JUNCTION     0.10     0.39     9.34     0  03:02        0.39
  WSF200               JUNCTION     0.26     0.44     5.67     0  03:04        0.44
  HS02004901           JUNCTION     0.13     0.38    10.20     0  03:01        0.37
  HS02004881           JUNCTION     0.01     0.06     9.08     0  02:58        0.05
  HS02004876           JUNCTION     0.05     0.16     9.19     0  03:01        0.16
  HS02004870           JUNCTION     0.02     0.09     9.38     0  03:01        0.09
  HS02004862           JUNCTION     0.02     0.11     9.49     0  03:01        0.11
  HS02004856           JUNCTION     0.08     0.15     9.58     0  03:01        0.15
  HS02004852           JUNCTION     0.01     0.07     9.59     0  03:02        0.07
  HS02004848           JUNCTION     0.01     0.07     9.67     0  03:01        0.07
  HS02004842           JUNCTION     0.34     0.40     9.67     0  03:01        0.40
  HS02004837           JUNCTION     0.03     0.09     9.67     0  03:01        0.09
  HS02004830           JUNCTION     0.04     0.10     9.57     0  03:02        0.10
  HS02004824           JUNCTION     0.03     0.13     9.53     0  03:02        0.13
  HS02004817           JUNCTION     0.45     0.69     9.54     0  03:02        0.69
  HS02004807           JUNCTION     0.13     0.36     9.53     0  03:02        0.36
  HS02004802           JUNCTION     0.17     0.39     9.52     0  03:02        0.39
  HS02004799           JUNCTION     0.12     0.46     9.68     0  03:01        0.46
  HS02004792           JUNCTION     0.04     0.22     9.74     0  03:01        0.21
  HS02004788           JUNCTION     0.03     0.16    10.05     0  03:02        0.16
  HS02004785           JUNCTION     0.05     0.25    10.15     0  03:02        0.25
  HS02004777           JUNCTION     0.15     0.39    10.19     0  03:01        0.39
  HS02004770           JUNCTION     0.12     0.37    10.20     0  03:01        0.36
  HS02004480           JUNCTION     0.09     0.38     9.62     0  03:01        0.38
  HS02004479           JUNCTION     0.12     0.42     9.62     0  03:01        0.42
  HS02004478           JUNCTION     0.07     0.28     9.50     0  03:01        0.28
  YS02001745           JUNCTION     0.74     0.95     8.47     0  03:01        0.95
  YS02001748           JUNCTION     1.14     1.77     8.85     0  02:32        1.39
  YS02001751           JUNCTION     1.32     1.81     8.69     0  02:32        1.57
  YS02001754           JUNCTION     1.58     1.86     8.47     0  02:32        1.83
  YS02001762           JUNCTION     1.78     2.04     8.44     0  03:00        2.04
  YS02001765           JUNCTION     1.73     1.99     8.44     0  02:57        1.98
  YS02001767           JUNCTION     1.69     1.94     8.43     0  03:00        1.94
  YS02001770           JUNCTION     1.69     1.93     8.43     0  03:00        1.92
  YS02001774           JUNCTION     1.75     1.98     8.41     0  02:57        1.98
  YS02001779           JUNCTION     1.50     1.68     8.37     0  02:32        1.68
  YS02001882           JUNCTION     0.59     1.65     8.36     0  02:46        1.63
  YS02001884           JUNCTION     0.68     1.74     8.35     0  02:46        1.73
  YS02001759           JUNCTION     1.81     2.08     8.45     0  02:57        2.08
  YS02001887           JUNCTION     0.76     1.81     8.35     0  03:01        1.81
  YS02001890           JUNCTION     0.79     1.81     8.32     0  02:48        1.81
  YS02001898           JUNCTION     0.56     1.56     8.30     0  02:48        1.56
  YS02001901           JUNCTION     0.68     1.68     8.29     0  02:56        1.67
  YS02001904           JUNCTION     0.65     1.64     8.27     0  02:48        1.63
  YS02001907           JUNCTION     0.99     1.96     8.25     0  02:48        1.96
  YS02001910           JUNCTION     0.77     1.82     8.33     0  02:49        1.78
  YS02001915           JUNCTION     0.57     1.66     8.38     0  02:49        1.61
  YS02001918           JUNCTION     0.32     1.41     8.48     0  02:49        1.31
  YS02001619           JUNCTION     1.28     1.61     8.54     0  02:32        1.48
  YS02001629           JUNCTION     1.64     1.85     8.40     0  02:40        1.84
  YS02001641           JUNCTION     1.74     1.94     8.37     0  03:00        1.93
  YS02001644           JUNCTION     1.74     1.92     8.35     0  02:39        1.92
  YS02001652           JUNCTION     1.59     2.09     8.69     0  04:15        1.86
  YS02001655           JUNCTION     1.35     2.00     8.85     0  04:15        1.66
  YS02001920           JUNCTION     0.42     1.51     8.52     0  02:49        1.40
  YS02001923           JUNCTION     0.25     1.29     8.55     0  02:49        1.18
  YS02001926           JUNCTION     0.30     1.44     8.89     0  02:49        0.96
  YS02001929           JUNCTION     0.18     0.84     8.54     0  02:49        0.71
  YS02001658           JUNCTION     1.08     1.89     9.03     0  04:15        1.47
  YS02001661           JUNCTION     0.85     2.38     9.79     0  04:15        1.40
  YS02001664           JUNCTION     0.38     0.57     8.49     0  02:42        0.56
  YS02001622           JUNCTION     1.31     1.62     8.52     0  02:32        1.50
  YS02001633           JUNCTION     1.73     1.95     8.40     0  02:57        1.94
  YS02001649           JUNCTION     1.78     2.05     8.44     0  02:43        2.04
  YS02001757           JUNCTION     1.91     2.17     8.44     0  03:00        2.16
  YS02001895           JUNCTION     0.55     1.57     8.31     0  02:57        1.56
  YS02001625           JUNCTION     1.59     1.78     8.38     0  02:32        1.78
  YS02163301           JUNCTION     1.67     1.88     8.40     0  03:00        1.88
  YS02163601           JUNCTION     1.78     1.99     8.39     0  02:39        1.98
  YS02164001           JUNCTION     1.72     1.92     8.38     0  02:40        1.91
  YS02001647           JUNCTION     1.57     1.80     8.41     0  02:44        1.78
  YSB1154              JUNCTION     0.26     0.57     9.62     0  03:01        0.57
  YSB6556              JUNCTION     0.16     0.45     9.62     0  03:02        0.45
  YSB1174              JUNCTION     0.21     0.52     9.62     0  03:01        0.51
  YSB1171              JUNCTION     0.42     0.72     9.62     0  03:01        0.72
  YS02006553           JUNCTION     0.99     1.97     8.25     0  03:01        1.97
  YS02006561           JUNCTION     0.33     1.23     7.89     0  02:46        1.08
  YS02006556           JUNCTION     0.95     1.95     8.26     0  02:58        1.93
  YS02006558           JUNCTION     0.99     1.98     8.25     0  03:00        1.98
  YS02001783           JUNCTION     0.55     1.61     7.75     0  02:46        1.47
  YS02001784           JUNCTION     0.57     1.57     7.64     0  02:46        1.41
  YS02001786           JUNCTION     0.50     1.72     7.75     0  02:46        1.26
  YS02001788           JUNCTION     0.42     2.01     7.99     0  02:46        1.13
  YS02001790           JUNCTION     0.53     1.96     7.60     0  04:40        1.70
  YS02001791           JUNCTION     0.48     1.76     7.23     0  06:16        1.50
  YS02001793           JUNCTION     0.65     2.64     7.47     0  04:38        1.85
  WSC                  OUTFALL      0.37     0.48     1.15     0  03:08        0.48
  JK-storage           STORAGE      2.65     5.80     6.60     0  02:46        5.80
  CC-storage           STORAGE      1.16     1.42     8.42     0  03:13        1.42
  XR-storage           STORAGE      6.83     7.72     5.72     0  02:55        7.72
  
  
  *******************
  Node Inflow Summary
  *******************
  
  -------------------------------------------------------------------------------------------------
                                  Maximum  Maximum                  Lateral       Total        Flow
                                  Lateral    Total  Time of Max      Inflow      Inflow     Balance
                                   Inflow   Inflow   Occurrence      Volume      Volume       Error
  Node                 Type           LPS      LPS  days hr:min    10^6 ltr    10^6 ltr     Percent
  -------------------------------------------------------------------------------------------------
  WS02001211           JUNCTION      7.35   390.29     0  03:16       0.207        9.97       0.412
  WS02001212           JUNCTION      0.00   393.22     0  03:16           0        9.93       0.242
  WS02001213           JUNCTION      0.00   395.74     0  03:16           0         9.9       0.307
  WS02003069           JUNCTION      0.32  1320.31     0  03:06     0.00902        20.7       0.186
  WS02003072           JUNCTION      0.00  1320.05     0  03:06           0        20.6       0.219
  WS02003073           JUNCTION      1.82  1322.11     0  03:07      0.0514        20.6       0.255
  WS02003060           JUNCTION     16.53  1320.18     0  03:05       0.466        20.7       0.176
  WS02003066           JUNCTION      0.00   937.42     0  03:04           0        10.4       0.051
  WS02003059           JUNCTION      0.00   398.65     0  03:15           0        9.88       0.419
  WS02003067           JUNCTION      0.00   936.98     0  03:04           0        10.4       0.102
  WS02004401           JUNCTION      0.00   941.39     0  03:01           0        10.7       0.227
  WS02004402           JUNCTION      0.00   941.12     0  03:01           0        10.7       0.211
  WS02004403           JUNCTION      0.00   941.05     0  03:01           0        10.6       0.189
  WS02004404           JUNCTION      0.16   941.70     0  03:01     0.00457        10.6       0.139
  WS02004406           JUNCTION      0.00   942.60     0  03:01           0        10.6       0.338
  WS02004409           JUNCTION      0.00   941.65     0  03:01           0        10.5       0.193
  WS02004410           JUNCTION      0.00   937.26     0  03:03           0        10.5       0.214
  WS02004411           JUNCTION      0.00   937.30     0  03:03           0        10.5       0.216
  WS02004412           JUNCTION      0.00   936.81     0  03:04           0        10.5       0.227
  WS02004413           JUNCTION      0.00   936.97     0  03:04           0        10.5       0.328
  WS02004405           JUNCTION      0.04   942.38     0  03:01     0.00107        10.6       0.210
  WS02006109           JUNCTION      1.23   913.33     0  03:02      0.0347        10.7       0.207
  WS02006110           JUNCTION      0.00   913.33     0  03:02           0        10.7       0.201
  WS02006111           JUNCTION      0.00   913.51     0  03:03           0        10.7       0.043
  WS02006112           JUNCTION     30.67   939.69     0  03:01      0.0853        10.8       0.276
  WS02006113           JUNCTION      0.00   913.31     0  03:02           0        10.7       0.115
  WS02006115           JUNCTION      0.00   939.71     0  03:01           0        10.7       0.224
  WS02006116           JUNCTION      0.00   941.06     0  03:01           0        10.7       0.215
  WS02006230           JUNCTION     10.28   533.36     0  06:40        0.29        8.32       0.192
  WS02006231           JUNCTION      0.00   522.89     0  06:40           0        8.04       0.160
  WS02006232           JUNCTION      0.00   522.99     0  06:40           0        8.06       0.228
  WS02006234           JUNCTION      0.00   523.57     0  06:40           0        8.07       0.134
  WS02006235           JUNCTION      0.00   524.19     0  06:40           0        8.12       0.147
  WS02006238           JUNCTION      0.00   414.76     0  07:30           0        4.85       0.188
  WS02006240           JUNCTION      0.00   413.23     0  07:30           0        4.84       0.345
  WS02006242           JUNCTION      0.00   413.65     0  07:30           0        4.84       0.387
  WS02006243           JUNCTION      0.00   413.67     0  07:30           0        4.85       0.237
  WS02006245           JUNCTION      0.00   414.13     0  07:30           0        4.86       0.288
  WS02006247           JUNCTION      0.00   414.39     0  07:30           0        4.87       0.235
  WS02006248           JUNCTION      0.00   414.78     0  07:30           0        4.88       0.204
  WS02006249           JUNCTION      0.00   425.32     0  04:54           0        5.25       0.284
  WS02006239           JUNCTION      0.00   414.00     0  07:30           0        4.84       0.208
  WS02006251           JUNCTION      0.08   413.91     0  03:40     0.00217        5.32       0.320
  WS02006252           JUNCTION      0.00   400.00     0  04:50           0         4.8       0.011
  WS02006253           JUNCTION      3.75   159.44     0  02:58      0.0103       0.531       2.339
  WS02006256           JUNCTION      0.00   983.00     0  00:00           0        9.93      -0.002
  WS02004138           JUNCTION      0.00   380.00     0  00:00           0         9.8       0.063
  WS02004139           JUNCTION      0.32   396.51     0  00:00     0.00905        9.81       0.468
  WS02004407           JUNCTION      0.00   943.33     0  03:01           0        10.6       0.086
  WS02006228           JUNCTION      0.00   912.02     0  03:02           0        10.7       0.161
  WS02006229           JUNCTION      0.00   933.83     0  02:59           0        10.7       0.126
  WS02006280           JUNCTION      0.00   680.19     0  03:02           0        2.43       0.014
  WS02006284           JUNCTION      0.10   679.06     0  03:02      0.0027        2.43       0.045
  WS02006287           JUNCTION      0.00   677.70     0  03:02           0        2.43       0.032
  WSF200               JUNCTION      0.00   937.51     0  03:04           0        10.4       0.050
  HS02004901           JUNCTION     37.63    37.63     0  03:01       0.103       0.103       1.743
  HS02004881           JUNCTION     14.26   140.53     0  03:01      0.0422       0.463       0.106
  HS02004876           JUNCTION     25.66   127.64     0  03:01      0.0814       0.422       0.129
  HS02004870           JUNCTION     26.26   103.58     0  03:01      0.0799        0.34       0.036
  HS02004862           JUNCTION     25.49    79.37     0  03:01      0.0888       0.261       0.068
  HS02004856           JUNCTION     19.64    55.38     0  03:01      0.0601       0.173       0.841
  HS02004852           JUNCTION      0.00    37.84     0  03:01           0       0.113       0.053
  HS02004848           JUNCTION     55.75    55.75     0  03:01       0.197       0.197       0.030
  HS02004842           JUNCTION      0.00    16.84     0  03:01           0       0.097      15.491
  HS02004837           JUNCTION     50.35    65.69     0  03:01       0.318       0.402       0.205
  HS02004830           JUNCTION      0.15    64.79     0  03:01     0.00423       0.392       0.316
  HS02004824           JUNCTION     65.57   128.43     0  03:01       0.251       0.642       0.086
  HS02004817           JUNCTION      0.60   124.48     0  03:01      0.0169       0.658       2.599
  HS02004807           JUNCTION     48.45   165.81     0  03:01       0.147       0.788       0.555
  HS02004802           JUNCTION      0.00   165.31     0  03:04           0       0.785       0.508
  HS02004799           JUNCTION     38.67   446.02     0  03:01       0.119        1.42       0.191
  HS02004792           JUNCTION    184.82   411.82     0  03:01        0.54         1.3       0.034
  HS02004788           JUNCTION     58.68   233.44     0  03:02       0.219       0.758       0.054
  HS02004785           JUNCTION      0.15   182.20     0  03:01     0.00423        0.54       0.093
  HS02004777           JUNCTION      0.03   184.99     0  03:01    0.000846       0.541       0.972
  HS02004770           JUNCTION    154.22   188.91     0  03:01       0.441       0.542       0.579
  HS02004480           JUNCTION      0.00   517.24     0  03:01           0        1.66       0.068
  HS02004479           JUNCTION      0.00    75.43     0  03:02           0       0.258       0.287
  HS02004478           JUNCTION      0.00   677.12     0  03:02           0        2.43       0.010
  YS02001745           JUNCTION    438.14   438.14     0  03:01        3.01        3.02       0.313
  YS02001748           JUNCTION      0.04   568.04     0  02:32     0.00127        3.01       0.699
  YS02001751           JUNCTION      0.01   443.39     0  03:01     0.00031        2.98       0.800
  YS02001754           JUNCTION      0.26   443.46     0  03:01     0.00733        2.97       0.834
  YS02001762           JUNCTION      0.00   316.10     0  02:42           0        1.94       1.093
  YS02001765           JUNCTION      0.00   316.53     0  02:42           0        1.94       1.269
  YS02001767           JUNCTION      0.54   316.84     0  02:42      0.0151        1.96       1.856
  YS02001770           JUNCTION    552.50   674.26     0  03:02        3.37        3.86       0.824
  YS02001774           JUNCTION      0.00   674.16     0  03:02           0        2.37       1.072
  YS02001779           JUNCTION      0.01   674.63     0  03:02    0.000141        2.34       0.670
  YS02001882           JUNCTION      0.00    14.74     0  02:26           0      0.0213      11.140
  YS02001884           JUNCTION      0.00    23.82     0  02:26           0      0.0587      11.877
  YS02001759           JUNCTION    536.49   622.50     0  02:42        3.11        4.52       0.512
  YS02001887           JUNCTION    679.97   680.02     0  03:01        3.56         3.6       0.241
  YS02001890           JUNCTION      0.00   680.38     0  03:01           0        3.55       0.258
  YS02001898           JUNCTION      0.00   517.91     0  03:00           0        3.45       0.095
  YS02001901           JUNCTION      0.00   517.84     0  03:00           0        3.45       0.198
  YS02001904           JUNCTION      0.00   518.20     0  02:59           0        3.44       0.179
  YS02001907           JUNCTION      0.00  1105.30     0  03:02           0        7.77       0.321
  YS02001910           JUNCTION      0.00   592.22     0  02:50           0        4.34       0.280
  YS02001915           JUNCTION    389.26   592.45     0  02:50        2.52        4.37       0.135
  YS02001918           JUNCTION      0.00   321.16     0  02:50           0        1.88       0.091
  YS02001619           JUNCTION    380.66   380.66     0  03:01        2.51        2.51       0.480
  YS02001629           JUNCTION      0.00   197.57     0  02:39           0        1.59       1.842
  YS02001641           JUNCTION      0.00   415.78     0  02:39           0        4.45       0.478
  YS02001644           JUNCTION    416.76  1523.84     0  03:01         2.9        10.5       0.248
  YS02001652           JUNCTION      0.00   497.62     0  03:01           0        2.63       0.884
  YS02001655           JUNCTION      0.15   497.99     0  03:01     0.00434        2.65       0.945
  YS02001920           JUNCTION      2.87   320.36     0  02:50      0.0809        1.87       0.161
  YS02001923           JUNCTION      0.04   319.48     0  02:50     0.00106        1.78       0.038
  YS02001926           JUNCTION      0.05   311.81     0  02:48     0.00147        1.76       0.179
  YS02001929           JUNCTION    189.18   191.40     0  02:47        1.75        1.75       0.037
  YS02001658           JUNCTION      0.00   568.83     0  02:29           0        2.68       0.816
  YS02001661           JUNCTION      0.00   662.63     0  02:43           0        3.06      -0.126
  YS02001664           JUNCTION    492.63   492.63     0  03:01        2.67        3.06       0.145
  YS02001622           JUNCTION      0.00   380.86     0  03:01           0         2.5       1.291
  YS02001633           JUNCTION    423.29   423.29     0  03:01        2.99        4.52       0.715
  YS02001649           JUNCTION      0.00   871.17     0  02:39           0        6.08       0.611
  YS02001757           JUNCTION      0.00  1676.37     0  02:40           0         9.8       0.942
  YS02001895           JUNCTION      0.00   517.85     0  02:58           0        3.45       0.148
  YS02001625           JUNCTION      0.00   409.49     0  03:01           0        2.48       1.585
  YS02163301           JUNCTION      0.00   202.62     0  02:32           0        1.57       1.558
  YS02163601           JUNCTION      0.11   415.47     0  02:39      0.0031        4.48       0.678
  YS02164001           JUNCTION      0.00   415.59     0  02:39           0        4.46       0.449
  YS02001647           JUNCTION      0.00   729.24     0  03:10           0        5.12       0.553
  YSB1154              JUNCTION     44.76    44.76     0  03:01       0.144       0.144       1.019
  YSB6556              JUNCTION      0.00    43.29     0  03:01           0       0.145       0.869
  YSB1174              JUNCTION     38.10    38.10     0  03:01       0.106       0.107       1.223
  YSB1171              JUNCTION      0.00    76.90     0  03:01           0       0.257       2.527
  YS02006553           JUNCTION      0.00   711.23     0  03:46           0        6.71       0.236
  YS02006561           JUNCTION      0.00  1017.84     0  02:46           0        9.93       0.003
  YS02006556           JUNCTION      0.00   711.27     0  03:46           0        6.71       0.172
  YS02006558           JUNCTION    587.14  1013.00     0  02:46        3.28        9.96       0.054
  YS02001783           JUNCTION      0.00  1002.73     0  02:45           0        9.93       0.025
  YS02001784           JUNCTION      1.06  1003.83     0  02:45      0.0299        9.96       0.038
  YS02001786           JUNCTION      0.06  1003.28     0  02:46     0.00159        9.96       0.032
  YS02001788           JUNCTION      0.07   988.35     0  02:45       0.002        9.96       0.024
  YS02001790           JUNCTION      0.15   983.58     0  02:45     0.00437        9.96       0.018
  YS02001791           JUNCTION      0.00  1025.52     0  02:45           0        9.96       0.011
  YS02001793           JUNCTION      0.00   982.57     0  03:29           0        9.96      -0.045
  WSC                  OUTFALL       0.00  1322.39     0  03:08           0        20.6       0.000
  JK-storage           STORAGE       0.00   982.58     0  03:29           0        10.1     -10.569
  CC-storage           STORAGE       0.00  1676.60     0  02:40           0        8.15       0.744
  XR-storage           STORAGE    1024.87  1024.87     0  03:01        12.7        13.3      -0.002
  
  
  **********************
  Node Surcharge Summary
  **********************
  
  Surcharging occurs when water rises above the top of the highest conduit.
  ---------------------------------------------------------------------
                                               Max. Height   Min. Depth
                                   Hours       Above Crown    Below Rim
  Node                 Type      Surcharged         Meters       Meters
  ---------------------------------------------------------------------
  WS02004401           JUNCTION        0.41          0.259        1.401
  WS02004402           JUNCTION        0.44          0.246        1.494
  WS02004403           JUNCTION        0.46          0.225        1.805
  WS02004404           JUNCTION        1.01          0.275        2.505
  WS02004406           JUNCTION        0.78          0.182        2.268
  WS02004413           JUNCTION        0.15          0.023        2.177
  WS02004405           JUNCTION        0.84          0.248        2.552
  WS02006109           JUNCTION        4.58          0.833        0.987
  WS02006110           JUNCTION        2.61          0.552        1.298
  WS02006111           JUNCTION        0.11          0.118        1.752
  WS02006112           JUNCTION        3.11          0.602        1.078
  WS02006113           JUNCTION        0.12          0.156        1.774
  WS02006115           JUNCTION        0.30          0.246        2.004
  WS02006116           JUNCTION        0.32          0.238        2.052
  WS02006230           JUNCTION        2.20          0.792        0.778
  WS02006231           JUNCTION        2.83          0.814        0.716
  WS02006232           JUNCTION        4.33          0.931        0.549
  WS02006234           JUNCTION        3.72          0.813        0.427
  WS02006235           JUNCTION        4.08          0.839        0.451
  WS02006238           JUNCTION        4.12          0.847        0.583
  WS02006240           JUNCTION        3.56          0.702        0.688
  WS02006242           JUNCTION        3.64          0.705        0.115
  WS02006243           JUNCTION        3.20          0.570        0.200
  WS02006245           JUNCTION        3.05          0.509        0.341
  WS02006247           JUNCTION        3.06          0.490        0.270
  WS02006248           JUNCTION        2.75          0.380        0.000
  WS02006249           JUNCTION        2.81          0.390        0.000
  WS02006239           JUNCTION        3.77          0.757        0.533
  WS02006251           JUNCTION        1.34          0.574        0.606
  WS02006252           JUNCTION        3.05          0.687        0.413
  WS02006253           JUNCTION        1.40          0.524        1.956
  WS02006256           JUNCTION        6.67          2.050        0.000
  WS02006228           JUNCTION        4.55          0.993        1.207
  YS02001748           JUNCTION        5.22          0.689        0.501
  YS02001751           JUNCTION        5.37          0.811        0.389
  YS02001754           JUNCTION        5.58          0.808        0.342
  YS02001762           JUNCTION        5.75          1.042        0.108
  YS02001765           JUNCTION        5.72          0.991        0.109
  YS02001767           JUNCTION        5.69          0.945        0.085
  YS02001770           JUNCTION        5.68          0.905        0.015
  YS02001774           JUNCTION        5.74          0.985        0.065
  YS02001779           JUNCTION        5.56          0.680        0.000
  YS02001882           JUNCTION        1.06          0.648        0.182
  YS02001884           JUNCTION        1.09          0.677        0.193
  YS02001759           JUNCTION        5.78          1.081        0.129
  YS02001887           JUNCTION        1.17          0.762        0.188
  YS02001890           JUNCTION        1.20          0.760        0.000
  YS02001898           JUNCTION        1.02          0.533        0.207
  YS02001901           JUNCTION        1.13          0.678        0.192
  YS02001904           JUNCTION        1.10          0.639        0.211
  YS02001907           JUNCTION        1.91          0.950        0.000
  YS02001910           JUNCTION        1.24          0.823        0.277
  YS02001915           JUNCTION        1.05          0.663        0.337
  YS02001918           JUNCTION        0.88          0.412        0.398
  YS02001619           JUNCTION        5.37          0.610        0.000
  YS02001629           JUNCTION        5.39          0.466        0.004
  YS02001641           JUNCTION        5.73          0.936        0.164
  YS02001644           JUNCTION        5.73          0.920        0.000
  YS02001652           JUNCTION        5.61          1.061        0.069
  YS02001655           JUNCTION        5.40          0.996        0.204
  YS02001920           JUNCTION        0.90          0.513        0.627
  YS02001923           JUNCTION        0.01          0.084        0.736
  YS02001926           JUNCTION        0.01          0.441        0.459
  YS02001658           JUNCTION        5.25          0.892        0.408
  YS02001661           JUNCTION        0.13          1.314        0.076
  YS02001622           JUNCTION        5.41          0.620        0.000
  YS02001633           JUNCTION        5.71          0.927        0.133
  YS02001649           JUNCTION        5.76          1.050        0.000
  YS02001757           JUNCTION        5.86          1.174        0.036
  YS02001895           JUNCTION        1.03          0.566        0.184
  YS02001625           JUNCTION        5.64          0.780        0.000
  YS02163301           JUNCTION        5.68          0.882        0.148
  YS02163601           JUNCTION        5.75          0.991        0.089
  YS02164001           JUNCTION        5.72          0.921        0.179
  YS02001647           JUNCTION        5.62          0.802        0.098
  YS02006553           JUNCTION        1.97          0.969        0.221
  YS02006561           JUNCTION        0.92          0.425        0.725
  YS02006556           JUNCTION        1.47          0.907        0.443
  YS02006558           JUNCTION        1.43          0.880        0.520
  YS02001783           JUNCTION        1.19          0.809        0.791
  YS02001784           JUNCTION        1.14          0.774        0.716
  YS02001786           JUNCTION        1.02          0.925        0.505
  YS02001788           JUNCTION        0.97          1.215        0.265
  YS02001790           JUNCTION        1.60          1.157        0.000
  YS02001791           JUNCTION        1.67          0.960        0.960
  YS02001793           JUNCTION        2.00          1.635        0.965
  
  
  *********************
  Node Flooding Summary
  *********************
  
  Flooding refers to all water that overflows a node, whether it ponds or not.
  --------------------------------------------------------------------------
                                                             Total   Maximum
                                 Maximum   Time of Max       Flood    Ponded
                        Hours       Rate    Occurrence      Volume     Depth
  Node                 Flooded       LPS   days hr:min    10^6 ltr    Meters
  --------------------------------------------------------------------------
  WS02006248              0.08     16.88      0  03:03       0.003     0.000
  WS02006249              1.23    254.80      0  03:02       0.346     0.000
  WS02006256              3.97    978.40      0  00:00       6.625     0.000
  YS02001779              2.66    674.55      0  03:02       2.320     0.000
  YS02001890              0.34    163.78      0  03:01       0.085     0.000
  YS02001907              0.76    710.99      0  03:01       1.049     0.000
  YS02001619              0.01     26.53      0  02:32       0.000     0.000
  YS02001644              4.08   1523.82      0  03:01       8.510     0.000
  YS02001622              0.01     19.57      0  02:32       0.000     0.000
  YS02001649              0.02     28.67      0  04:15       0.001     0.000
  YS02001625              1.40    409.29      0  03:01       0.856     0.000
  YS02001790              0.01    236.87      0  04:40       0.000     0.000
  JK-storage              0.79    965.43      0  02:50       1.257     0.000
  XR-storage              3.52    644.79      0  03:01       2.729     0.000
  
  
  **********************
  Storage Volume Summary
  **********************
  
  --------------------------------------------------------------------------------------------------
                         Average     Avg  Evap Exfil       Maximum     Max    Time of Max    Maximum
                          Volume    Pcnt  Pcnt  Pcnt        Volume    Pcnt     Occurrence    Outflow
  Storage Unit           1000 m3    Full  Loss  Loss       1000 m3    Full    days hr:min        LPS
  --------------------------------------------------------------------------------------------------
  JK-storage               0.133      46     0     0         0.291     100       0  02:46     983.00
  CC-storage               3.245      21     0     0         3.966      25       0  03:13     400.00
  XR-storage               0.820      88     0     0         0.926     100       0  02:55     380.00
  
  
  ***********************
  Outfall Loading Summary
  ***********************
  
  ---------------------------------------------------------------------------------------------------------------------------------
                         Flow       Avg       Max       Total         Total         Total         Total         Total         Total
                         Freq      Flow      Flow      Volume           COD            SS            TN            TP         NH4-N
  Outfall Node           Pcnt       LPS       LPS    10^6 ltr            kg            kg            kg            kg            kg
  ---------------------------------------------------------------------------------------------------------------------------------
  WSC                   99.98    839.57   1322.39      20.585      2433.865      4218.549       149.185        17.416        89.917
  ---------------------------------------------------------------------------------------------------------------------------------
  System                99.98    839.57   1322.39      20.585      2433.865      4218.549       149.185        17.416        89.917
  
  
  ********************
  Link Flow Summary
  ********************
  
  -----------------------------------------------------------------------------
                                 Maximum  Time of Max   Maximum    Max/    Max/
                                  |Flow|   Occurrence   |Veloc|    Full    Full
  Link                 Type          LPS  days hr:min     m/sec    Flow   Depth
  -----------------------------------------------------------------------------
  WS02003066WSF200     CONDUIT    937.51     0  03:04      3.00    0.16    0.32
  WS02006287WS02006284 CONDUIT    678.96     0  03:02      2.38    0.31    0.39
  WS02006284WS02006280 CONDUIT    680.19     0  03:02      2.62    0.28    0.37
  WS02006280WS02006229 CONDUIT    680.40     0  03:02      3.98    0.15    0.50
  WS02006229WS02006228 CONDUIT    912.02     0  03:02      1.81    3.02    1.00
  WS02006256WS02006235 CONDUIT    288.60     0  00:00      4.23    3.05    1.00
  WS02006253WS02006251 CONDUIT    159.46     0  02:58      0.53    0.48    1.00
  WS02006252WS02006251 CONDUIT    403.09     0  04:54      3.21    1.48    1.00
  WS02006251WS02006249 CONDUIT    425.32     0  04:54      1.11    1.23    1.00
  WS02006249WS02006248 CONDUIT    414.78     0  07:30      1.14    2.27    1.00
  WS02006248WS02006247 CONDUIT    414.39     0  07:30      1.11    0.90    1.00
  WS02006247WS02006245 CONDUIT    414.13     0  07:30      1.08    3.28    1.00
  WS02006245WS02006243 CONDUIT    413.67     0  07:30      1.10    1.22    1.00
  WS02006243WS02006242 CONDUIT    413.65     0  07:30      1.07    0.88    1.00
  WS02006242WS02006240 CONDUIT    413.23     0  07:30      1.07    1.64    1.00
  WS02006240WS02006239 CONDUIT    414.00     0  07:30      1.08    1.30    1.00
  WS02006239WS02006238 CONDUIT    414.76     0  07:30      1.08    1.33    1.00
  WS02006238WS02006235 CONDUIT    416.01     0  07:30      1.46    0.93    1.00
  WS02006235WS02006234 CONDUIT    523.57     0  06:40      1.36    5.52    1.00
  WS02006234WS02006232 CONDUIT    522.99     0  06:40      1.39    1.06    1.00
  WS02006232WS02006231 CONDUIT    522.89     0  06:40      1.36    1.10    1.00
  WS02006231WS02006230 CONDUIT    523.08     0  06:40      1.41    7.93    1.00
  WS02006230WS02006229 CONDUIT    534.63     0  06:40      1.39   11.90    1.00
  WS02006228WS02006109 CONDUIT    912.10     0  03:02      1.81    3.99    1.00
  WS02006116WS02004401 CONDUIT    941.39     0  03:01      1.20    1.30    1.00
  WS02006115WS02006116 CONDUIT    941.06     0  03:01      1.20    1.21    1.00
  WS02006113WS02006111 CONDUIT    913.51     0  03:03      2.61    1.10    1.00
  WS02006112WS02006115 CONDUIT    939.71     0  03:01      1.20    0.55    1.00
  WS02006111WS02006112 CONDUIT    914.04     0  03:03      1.82    0.43    1.00
  WS02006110WS02006113 CONDUIT    913.31     0  03:02      1.84    0.83    1.00
  WS02006109WS02006110 CONDUIT    913.33     0  03:02      1.82    1.76    1.00
  WS02004411WS02004412 CONDUIT    936.81     0  03:04      1.24    1.33    0.92
  WS02004401WS02004402 CONDUIT    941.12     0  03:01      1.20    1.13    1.00
  WS02004413WS02003067 CONDUIT    936.98     0  03:04      1.55    0.40    0.72
  WS02004412WS02004413 CONDUIT    936.97     0  03:04      1.21    0.63    0.95
  WS02004410WS02004411 CONDUIT    937.30     0  03:03      1.23    1.28    0.94
  WS02004409WS02004410 CONDUIT    937.26     0  03:03      1.22    1.21    0.95
  WS02004407WS02004409 CONDUIT    941.65     0  03:01      1.71    0.33    0.68
  WS02004406WS02004407 CONDUIT    943.33     0  03:01      1.61    0.42    0.70
  WS02004405WS02004406 CONDUIT    942.60     0  03:01      1.20    1.86    1.00
  WS02004404WS02004405 CONDUIT    942.34     0  03:01      1.20    9.23    1.00
  WS02004403WS02004404 CONDUIT    941.53     0  03:01      1.20    0.68    1.00
  WS02004402WS02004403 CONDUIT    941.05     0  03:01      1.20    1.35    1.00
  WS02004139WS02001211 CONDUIT    382.94     0  03:16      0.90    0.48    0.64
  WS02004138WS02004139 CONDUIT    396.19     0  00:00      3.65    0.08    0.47
  WS02003067WS02003066 CONDUIT    937.42     0  03:04      1.65    0.30    0.50
  WS02001213WS02003059 CONDUIT    398.65     0  03:15      0.88    0.66    0.87
  WS02001212WS02001213 CONDUIT    395.74     0  03:16      1.32    0.61    0.55
  WS02001211WS02001212 CONDUIT    393.22     0  03:16      0.78    0.30    0.71
  WS02003072WS02003073 CONDUIT   1320.29     0  03:07      1.95    2.85    0.58
  WS02003069WS02003072 CONDUIT   1320.05     0  03:06      1.81    0.64    0.61
  WS02003060WS02003069 CONDUIT   1319.99     0  03:06      2.02    0.52    0.56
  WS02003059WS02003060 CONDUIT    402.16     0  03:15      0.95    0.26    0.77
  HS02004901HS02004770 CONDUIT     37.23     0  03:01      0.10    0.14    0.53
  HS02004876HS02004881 CONDUIT    127.63     0  03:01      1.21    1.36    0.15
  HS02004870HS02004876 CONDUIT    103.09     0  03:01      0.82    0.07    0.18
  HS02004842HS02004848 CONDUIT     16.84     0  03:01      0.07    0.01    0.33
  HS02004837HS02004842 CONDUIT     17.90     0  03:03      0.42    0.01    0.35
  HS02004830HS02004837 CONDUIT     64.64     0  03:01      0.67    0.06    0.14
  HS02004824HS02004830 CONDUIT     64.12     0  03:02      0.62    0.08    0.16
  HS02004817HS02004824 CONDUIT    123.88     0  03:01      0.31    0.06    0.58
  HS02004770HS02004777 CONDUIT    184.96     0  03:01      0.49    0.34    0.54
  HS02004799HS02004480 CONDUIT    444.37     0  03:01      1.07    0.56    0.60
  HS02004792HS02004799 CONDUIT    408.44     0  03:01      1.20    0.25    0.49
  HS02004788HS02004792 CONDUIT    232.96     0  03:02      1.28    0.15    0.26
  HS02004785HS02004788 CONDUIT    181.78     0  03:02      0.91    1.37    0.29
  HS02004777HS02004785 CONDUIT    182.05     0  03:01      0.57    0.22    0.45
  HS02004480HS02004478 CONDUIT    517.36     0  03:01      1.55    2.18    0.48
  HS02004479HS02004480 CONDUIT     77.30     0  03:02      0.30    0.07    0.57
  HS02004862HS02004870 CONDUIT     79.02     0  03:01      0.80    0.09    0.14
  HS02004848HS02004852 CONDUIT     37.84     0  03:01      0.53    0.04    0.10
  HS02004856HS02004862 CONDUIT     54.77     0  03:01      0.59    0.05    0.13
  HS02004852HS02004856 CONDUIT     37.76     0  03:02      0.34    0.04    0.16
  HS02004802HS02004478 CONDUIT    170.16     0  03:04      0.54    0.15    0.48
  HS02004478WS02006287 CONDUIT    677.70     0  03:02      2.11    0.19    0.36
  HS02004817HS02004807 CONDUIT    128.11     0  03:04      0.25    0.08    0.75
  HS02004807HS02004802 CONDUIT    165.31     0  03:04      0.46    0.32    0.53
  YS02001759YS02001757 CONDUIT    621.39     0  02:42      0.79    0.44    1.00
  YS02001762YS02001759 CONDUIT    316.55     0  02:42      0.40    0.36    1.00
  YS02001765YS02001762 CONDUIT    316.10     0  02:42      0.40    0.30    1.00
  YS02001770YS02001767 CONDUIT    316.30     0  02:42      0.40    1.25    1.00
  YS02001774YS02001770 CONDUIT    674.16     0  03:02      0.86    0.43    1.00
  YS02001779YS02001774 CONDUIT    674.63     0  03:02      0.86    0.34    1.00
  YS02001649YS02001757 CONDUIT    870.66     0  02:40      1.11    0.53    1.00
  YS02001767YS02001765 CONDUIT    316.53     0  02:42      0.40    0.40    1.00
  YS02006561YS02001783 CONDUIT   1002.73     0  02:45      2.24    0.52    1.00
  YS02001783YS02001784 CONDUIT   1002.77     0  02:45      1.99    1.38    1.00
  YS02001784YS02001785 CONDUIT   1003.23     0  02:46      2.03    2.33    1.00
  YS02001788YS02001790 CONDUIT    983.43     0  02:45      2.49    0.72    1.00
  YS02001790YS02001791 CONDUIT   1025.52     0  02:45      3.15    1.12    1.00
  YS02001791YS02001793 CONDUIT    982.57     0  03:29      6.14    0.42    1.00
  YS02001910YS02001907 CONDUIT    592.93     0  02:50      0.75    0.33    1.00
  YS02001786YS02001788 CONDUIT    988.28     0  02:45      2.33    1.90    1.00
  YS02001915YS02001910 CONDUIT    592.22     0  02:50      0.75    0.29    1.00
  YS02001918YS02001915 CONDUIT    323.04     0  02:50      0.44    0.18    1.00
  YS02001923YS02001920 CONDUIT    317.49     0  02:50      0.75    0.14    1.00
  YS02001926YS02001923 CONDUIT    319.44     0  02:50      0.86    0.46    1.00
  YS02001929YS02001926 CONDUIT    267.70     0  02:49      0.92    0.13    0.92
  YS02001920YS02001918 CONDUIT    321.16     0  02:50      0.72    0.31    1.00
  YS02001629YS02163301 CONDUIT    202.62     0  02:32      0.26    0.25    1.00
  YS02001619YS02001622 CONDUIT    380.86     0  03:01      0.59    0.56    1.00
  YS02001622YS02001625 CONDUIT    381.13     0  03:01      0.49    0.20    1.00
  YS02001625YS02001629 CONDUIT    197.57     0  02:39      0.25    0.09    1.00
  YS02163301YS02001633 CONDUIT    205.13     0  02:32      0.26    0.19    1.00
  YS02163601YS02164001 CONDUIT    415.59     0  02:39      0.53    0.37    1.00
  YS02164001YS02001641 CONDUIT    415.78     0  02:39      0.53    0.57    1.00
  YS02001641YS02001644 CONDUIT    415.74     0  02:39      0.53    1.34    1.00
  YS02001647YS02001649 CONDUIT    729.24     0  03:10      0.93    0.39    1.00
  YS02006553YS02006556 CONDUIT    711.27     0  03:46      0.91    0.61    1.00
  YS02006556YS02006558 CONDUIT    711.40     0  03:46      0.91    0.56    1.00
  YSB6556YSB1171       CONDUIT     42.85     0  03:02      0.13    0.04    0.82
  YS02001907YS02006553 CONDUIT    711.23     0  03:46      0.79    0.84    1.00
  YS02006558YS02006561 CONDUIT   1017.84     0  02:46      3.65    2.25    1.00
  YS02001633YS02163601 CONDUIT    415.36     0  02:39      0.53    0.44    1.00
  YS02001644YS02001647 CONDUIT    729.27     0  03:10      0.93    0.43    1.00
  YS02001745YS02001748 CONDUIT    568.00     0  02:32      1.46    0.22    0.98
  YS02001748YS02001751 CONDUIT    443.38     0  03:01      1.03    0.22    1.00
  YS02001751YS02001754 CONDUIT    443.20     0  03:01      0.88    0.21    1.00
  YS02001754YS02001757 CONDUIT    443.27     0  03:01      0.56    0.18    1.00
  YS02001882YS02001884 CONDUIT     17.32     0  04:14      0.12    0.02    1.00
  YS02001884YS02001887 CONDUIT     23.82     0  02:26      0.08    0.03    1.00
  YS02001890YS02001895 CONDUIT    517.85     0  02:58      0.66    0.24    1.00
  YS02001895YS02001898 CONDUIT    517.91     0  03:00      0.66    0.90    1.00
  YS02001898YS02001901 CONDUIT    517.84     0  03:00      0.66    0.33    1.00
  YS02001901YS02001904 CONDUIT    518.20     0  02:59      0.66    0.80    1.00
  YS02001904YS02001907 CONDUIT    517.87     0  02:59      0.66    0.18    1.00
  YS02001887YS02001890 CONDUIT    680.38     0  03:01      0.87    1.16    1.00
  YS02001652YS02001649 CONDUIT    498.86     0  03:01      0.64    0.25    1.00
  YS02001655YS02001652 CONDUIT    497.62     0  03:01      0.94    0.24    1.00
  YS02001658YS02001655 CONDUIT    497.84     0  03:01      1.18    0.21    1.00
  YS02001661YS02001658 CONDUIT    568.83     0  02:29      1.52    0.22    1.00
  YS02001664YS02001661 CONDUIT    662.63     0  02:43      1.42    0.21    0.77
  YSB1154YSB6556       CONDUIT     43.29     0  03:01      0.18    0.08    0.73
  YSB1174YSB1171       CONDUIT     36.63     0  03:01      0.11    0.06    0.85
  YSB1171HS02004479    CONDUIT     75.43     0  03:02      0.54    0.05    0.68
  HS02004881HS02006253 CONDUIT    156.19     0  02:58      2.38    0.03    0.54
  YS02001793JiankangQianchi CONDUIT    982.58     0  03:29     16.52    0.08    1.00
  YS02001757CaochengTiaoxuchi CONDUIT   1676.60     0  02:40      2.17    0.74    1.00
  WSF200WS02003060     CONDUIT    938.27     0  03:04      1.94    0.21    0.44
  1                    CONDUIT   1322.39     0  03:08      3.58    0.46    0.48
  CC-Pump-1            PUMP       200.00     0  03:00              1.00
  CC-Pump-2            PUMP       200.00     0  04:50              1.00
  JK-Pump-1            PUMP       300.00     0  00:00              1.00
  JK-Pump-2            PUMP       683.00     0  00:00              1.00
  XR-Pump-1            PUMP        95.00     0  00:00              1.00
  XR-Pump-2            PUMP        95.00     0  00:00              1.00
  XR-Pump-3            PUMP        95.00     0  00:00              1.00
  XR-Pump-4            PUMP        95.00     0  00:00              1.00
  
  
  ***************************
  Flow Classification Summary
  ***************************
  
  -------------------------------------------------------------------------------------
                      Adjusted    ---------- Fraction of Time in Flow Class ---------- 
                       /Actual         Up    Down  Sub   Sup   Up    Down  Norm  Inlet 
  Conduit               Length    Dry  Dry   Dry   Crit  Crit  Crit  Crit  Ltd   Ctrl  
  -------------------------------------------------------------------------------------
  WS02003066WSF200        1.00   0.01  0.05  0.00  0.00  0.93  0.00  0.00  0.38  0.00
  WS02006287WS02006284    1.00   0.03  0.01  0.00  0.62  0.35  0.00  0.00  0.65  0.00
  WS02006284WS02006280    1.00   0.03  0.00  0.00  0.00  0.00  0.00  0.97  0.00  0.00
  WS02006280WS02006229    1.00   0.03  0.00  0.00  0.01  0.02  0.00  0.94  0.01  0.00
  WS02006229WS02006228    1.00   0.00  0.00  0.00  1.00  0.00  0.00  0.00  0.00  0.00
  WS02006256WS02006235    1.00   0.00  0.00  0.00  1.00  0.00  0.00  0.00  0.00  0.00
  WS02006253WS02006251    1.00   0.01  0.02  0.00  0.97  0.00  0.00  0.00  0.00  0.00
  WS02006252WS02006251    1.00   0.17  0.00  0.00  0.15  0.00  0.68  0.00  0.00  0.00
  WS02006251WS02006249    1.00   0.00  0.00  0.00  1.00  0.00  0.00  0.00  0.23  0.00
  WS02006249WS02006248    1.00   0.00  0.01  0.00  0.91  0.00  0.08  0.00  0.00  0.00
  WS02006248WS02006247    1.00   0.01  0.00  0.00  0.98  0.00  0.00  0.01  0.12  0.00
  WS02006247WS02006245    1.00   0.01  0.00  0.00  0.97  0.00  0.00  0.02  0.00  0.00
  WS02006245WS02006243    1.00   0.00  0.00  0.00  0.95  0.00  0.00  0.04  0.02  0.00
  WS02006243WS02006242    1.00   0.00  0.00  0.00  1.00  0.00  0.00  0.00  0.22  0.00
  WS02006242WS02006240    1.00   0.00  0.00  0.00  1.00  0.00  0.00  0.00  0.00  0.00
  WS02006240WS02006239    1.00   0.00  0.00  0.00  0.95  0.00  0.00  0.05  0.01  0.00
  WS02006239WS02006238    1.00   0.00  0.00  0.00  1.00  0.00  0.00  0.00  0.14  0.00
  WS02006238WS02006235    1.00   0.00  0.00  0.00  1.00  0.00  0.00  0.00  0.00  0.00
  WS02006235WS02006234    1.00   0.00  0.00  0.00  0.96  0.00  0.04  0.00  0.00  0.00
  WS02006234WS02006232    1.00   0.00  0.00  0.00  1.00  0.00  0.00  0.00  0.11  0.00
  WS02006232WS02006231    1.00   0.00  0.00  0.00  1.00  0.00  0.00  0.00  0.00  0.00
  WS02006231WS02006230    1.00   0.00  0.00  0.00  0.78  0.00  0.22  0.00  0.00  0.00
  WS02006230WS02006229    1.00   0.00  0.00  0.00  1.00  0.00  0.00  0.00  0.01  0.00
  WS02006228WS02006109    1.00   0.00  0.00  0.00  1.00  0.00  0.00  0.00  0.00  0.00
  WS02006116WS02004401    1.00   0.01  0.00  0.00  0.99  0.00  0.00  0.00  0.01  0.00
  WS02006115WS02006116    1.00   0.01  0.00  0.00  0.97  0.00  0.00  0.02  0.01  0.00
  WS02006113WS02006111    1.00   0.01  0.00  0.00  0.03  0.96  0.00  0.00  0.14  0.00
  WS02006112WS02006115    1.00   0.01  0.00  0.00  0.99  0.00  0.00  0.00  0.00  0.00
  WS02006111WS02006112    1.00   0.01  0.00  0.00  0.99  0.00  0.00  0.00  0.87  0.00
  WS02006110WS02006113    1.00   0.00  0.00  0.00  0.99  0.00  0.00  0.00  0.00  0.00
  WS02006109WS02006110    1.00   0.00  0.00  0.00  1.00  0.00  0.00  0.00  0.00  0.00
  WS02004411WS02004412    1.00   0.05  0.00  0.00  0.95  0.00  0.00  0.00  0.00  0.00
  WS02004401WS02004402    1.00   0.01  0.00  0.00  0.99  0.00  0.00  0.00  0.01  0.00
  WS02004413WS02003067    1.00   0.05  0.01  0.00  0.00  0.00  0.94  0.00  0.00  0.00
  WS02004412WS02004413    1.00   0.05  0.00  0.00  0.95  0.00  0.00  0.00  0.00  0.00
  WS02004410WS02004411    1.00   0.05  0.00  0.00  0.95  0.00  0.00  0.00  0.00  0.00
  WS02004409WS02004410    1.00   0.05  0.00  0.00  0.95  0.00  0.00  0.00  0.00  0.00
  WS02004407WS02004409    1.00   0.05  0.00  0.00  0.95  0.00  0.00  0.00  0.80  0.00
  WS02004406WS02004407    1.00   0.00  0.05  0.00  0.95  0.00  0.00  0.00  0.00  0.00
  WS02004405WS02004406    1.00   0.00  0.00  0.00  1.00  0.00  0.00  0.00  0.02  0.00
  WS02004404WS02004405    1.00   0.00  0.00  0.00  1.00  0.00  0.00  0.00  0.00  0.00
  WS02004403WS02004404    1.00   0.00  0.01  0.00  0.99  0.00  0.00  0.00  0.02  0.00
  WS02004402WS02004403    1.00   0.01  0.00  0.00  0.99  0.00  0.00  0.00  0.00  0.00
  WS02004139WS02001211    1.00   0.00  0.00  0.00  1.00  0.00  0.00  0.00  0.00  0.00
  WS02004138WS02004139    1.00   0.00  0.00  0.00  1.00  0.00  0.00  0.00  1.00  0.00
  WS02003067WS02003066    1.00   0.06  0.00  0.00  0.93  0.00  0.00  0.00  0.00  0.00
  WS02001213WS02003059    1.00   0.00  0.00  0.00  1.00  0.00  0.00  0.00  0.00  0.00
  WS02001212WS02001213    1.00   0.00  0.00  0.00  0.91  0.00  0.09  0.00  0.00  0.00
  WS02001211WS02001212    1.00   0.00  0.00  0.00  1.00  0.00  0.00  0.00  0.00  0.00
  WS02003072WS02003073    1.00   0.00  0.00  0.00  0.00  0.00  0.00  1.00  0.00  0.00
  WS02003069WS02003072    1.00   0.00  0.00  0.00  1.00  0.00  0.00  0.00  0.11  0.00
  WS02003060WS02003069    1.00   0.00  0.00  0.00  0.99  0.01  0.00  0.00  0.09  0.00
  WS02003059WS02003060    1.00   0.00  0.00  0.00  1.00  0.00  0.00  0.00  0.00  0.00
  HS02004901HS02004770    1.00   0.03  0.00  0.00  0.97  0.00  0.00  0.00  0.00  0.00
  HS02004876HS02004881    1.00   0.01  0.00  0.00  0.92  0.07  0.00  0.00  0.00  0.00
  HS02004870HS02004876    1.00   0.00  0.00  0.00  1.00  0.00  0.00  0.00  0.95  0.00
  HS02004842HS02004848    1.00   0.00  0.03  0.00  0.97  0.00  0.00  0.00  0.54  0.00
  HS02004837HS02004842    1.00   0.00  0.00  0.00  1.00  0.00  0.00  0.00  0.11  0.00
  HS02004830HS02004837    1.00   0.00  0.00  0.00  1.00  0.00  0.00  0.00  0.99  0.00
  HS02004824HS02004830    1.00   0.00  0.00  0.00  1.00  0.00  0.00  0.00  0.01  0.00
  HS02004817HS02004824    1.00   0.00  0.00  0.00  1.00  0.00  0.00  0.00  0.97  0.00
  HS02004770HS02004777    1.00   0.00  0.03  0.00  0.97  0.00  0.00  0.00  0.03  0.00
  HS02004799HS02004480    1.00   0.00  0.01  0.00  0.96  0.00  0.03  0.00  0.00  0.00
  HS02004792HS02004799    1.00   0.00  0.00  0.00  1.00  0.00  0.00  0.00  0.98  0.00
  HS02004788HS02004792    1.00   0.00  0.00  0.00  1.00  0.00  0.00  0.00  0.98  0.00
  HS02004785HS02004788    1.00   0.00  0.00  0.00  1.00  0.00  0.00  0.00  0.00  0.00
  HS02004777HS02004785    1.00   0.00  0.00  0.00  1.00  0.00  0.00  0.00  0.12  0.00
  HS02004480HS02004478    1.00   0.03  0.00  0.00  0.70  0.00  0.00  0.27  0.00  0.00
  HS02004479HS02004480    1.00   0.01  0.00  0.00  0.99  0.00  0.00  0.00  0.12  0.00
  HS02004862HS02004870    1.00   0.00  0.00  0.00  1.00  0.00  0.00  0.00  0.04  0.00
  HS02004848HS02004852    1.00   0.03  0.00  0.00  0.97  0.00  0.00  0.00  0.64  0.00
  HS02004856HS02004862    1.00   0.00  0.04  0.00  0.96  0.00  0.00  0.00  0.83  0.00
  HS02004852HS02004856    1.00   0.03  0.00  0.00  0.97  0.00  0.00  0.00  0.81  0.00
  HS02004802HS02004478    1.00   0.03  0.00  0.00  0.97  0.00  0.00  0.00  0.02  0.00
  HS02004478WS02006287    1.00   0.04  0.00  0.00  0.77  0.19  0.00  0.00  0.65  0.00
  HS02004817HS02004807    1.00   0.00  0.03  0.00  0.97  0.00  0.00  0.00  0.01  0.00
  HS02004807HS02004802    1.00   0.03  0.00  0.00  0.96  0.00  0.00  0.00  0.00  0.00
  YS02001759YS02001757    1.00   0.00  0.00  0.00  1.00  0.00  0.00  0.00  0.16  0.00
  YS02001762YS02001759    1.00   0.00  0.00  0.00  1.00  0.00  0.00  0.00  0.03  0.00
  YS02001765YS02001762    1.00   0.00  0.00  0.00  1.00  0.00  0.00  0.00  0.14  0.00
  YS02001770YS02001767    1.00   0.00  0.00  0.00  1.00  0.00  0.00  0.00  0.00  0.00
  YS02001774YS02001770    1.00   0.00  0.03  0.00  0.97  0.00  0.00  0.00  0.03  0.00
  YS02001779YS02001774    1.00   0.00  0.00  0.00  1.00  0.00  0.00  0.00  0.19  0.00
  YS02001649YS02001757    1.00   0.00  0.00  0.00  1.00  0.00  0.00  0.00  0.16  0.00
  YS02001767YS02001765    1.00   0.00  0.00  0.00  1.00  0.00  0.00  0.00  0.00  0.00
  YS02006561YS02001783    1.00   0.05  0.00  0.00  0.34  0.61  0.00  0.00  0.47  0.00
  YS02001783YS02001784    1.00   0.00  0.05  0.00  0.95  0.00  0.00  0.00  0.01  0.00
  YS02001784YS02001785    1.00   0.00  0.00  0.00  1.00  0.00  0.00  0.00  0.18  0.00
  YS02001788YS02001790    1.00   0.00  0.00  0.00  0.36  0.64  0.00  0.00  0.37  0.00
  YS02001790YS02001791    1.00   0.00  0.00  0.00  0.34  0.66  0.00  0.00  0.48  0.00
  YS02001791YS02001793    1.00   0.00  0.00  0.00  0.36  0.64  0.00  0.00  0.03  0.00
  YS02001910YS02001907    1.00   0.00  0.00  0.00  0.99  0.00  0.00  0.01  0.12  0.00
  YS02001786YS02001788    1.00   0.00  0.00  0.00  0.35  0.65  0.00  0.00  0.00  0.00
  YS02001915YS02001910    1.00   0.00  0.00  0.00  0.99  0.01  0.00  0.00  0.16  0.00
  YS02001918YS02001915    1.00   0.00  0.00  0.00  0.99  0.00  0.00  0.00  0.54  0.00
  YS02001923YS02001920    1.00   0.00  0.00  0.00  1.00  0.00  0.00  0.00  0.82  0.00
  YS02001926YS02001923    1.00   0.00  0.02  0.00  0.17  0.00  0.81  0.00  0.00  0.00
  YS02001929YS02001926    1.00   0.00  0.03  0.00  0.97  0.00  0.00  0.00  0.75  0.00
  YS02001920YS02001918    1.00   0.00  0.00  0.00  1.00  0.00  0.00  0.00  0.00  0.00
  YS02001629YS02163301    1.00   0.04  0.00  0.00  0.96  0.00  0.00  0.00  0.00  0.00
  YS02001619YS02001622    1.00   0.03  0.00  0.00  0.97  0.00  0.00  0.00  0.00  0.00
  YS02001622YS02001625    1.00   0.03  0.00  0.00  0.97  0.00  0.00  0.00  0.05  0.00
  YS02001625YS02001629    1.00   0.03  0.02  0.00  0.94  0.00  0.02  0.00  0.00  0.00
  YS02163301YS02001633    1.00   0.00  0.04  0.00  0.96  0.00  0.00  0.00  0.00  0.00
  YS02163601YS02164001    1.00   0.00  0.02  0.00  0.98  0.00  0.00  0.00  0.00  0.00
  YS02164001YS02001641    1.00   0.00  0.02  0.00  0.98  0.00  0.00  0.00  0.06  0.00
  YS02001641YS02001644    1.00   0.00  0.00  0.00  1.00  0.00  0.00  0.00  0.00  0.00
  YS02001647YS02001649    1.00   0.00  0.04  0.00  0.96  0.00  0.00  0.00  0.01  0.00
  YS02006553YS02006556    1.00   0.00  0.00  0.00  1.00  0.00  0.00  0.00  0.03  0.00
  YS02006556YS02006558    1.00   0.00  0.00  0.00  1.00  0.00  0.00  0.00  0.00  0.00
  YSB6556YSB1171          1.00   0.01  0.02  0.00  0.97  0.00  0.00  0.00  0.00  0.00
  YS02001907YS02006553    1.00   0.00  0.01  0.00  0.99  0.00  0.00  0.00  0.00  0.00
  YS02006558YS02006561    1.00   0.05  0.00  0.00  0.16  0.80  0.00  0.00  0.48  0.00
  YS02001633YS02163601    1.00   0.00  0.00  0.00  1.00  0.00  0.00  0.00  0.15  0.00
  YS02001644YS02001647    1.00   0.00  0.04  0.00  0.96  0.00  0.00  0.00  0.00  0.00
  YS02001745YS02001748    1.00   0.00  0.00  0.00  0.91  0.00  0.00  0.08  0.04  0.00
  YS02001748YS02001751    1.00   0.00  0.00  0.00  0.97  0.03  0.00  0.00  0.15  0.00
  YS02001751YS02001754    1.00   0.00  0.00  0.00  0.95  0.00  0.00  0.05  0.02  0.00
  YS02001754YS02001757    1.00   0.00  0.00  0.00  1.00  0.00  0.00  0.00  0.18  0.00
  YS02001882YS02001884    1.00   0.04  0.00  0.00  0.96  0.00  0.00  0.00  0.00  0.00
  YS02001884YS02001887    1.00   0.02  0.01  0.00  0.97  0.00  0.00  0.00  0.00  0.00
  YS02001890YS02001895    1.00   0.00  0.04  0.00  0.96  0.00  0.00  0.00  0.00  0.00
  YS02001895YS02001898    1.00   0.04  0.00  0.00  0.95  0.00  0.01  0.00  0.00  0.00
  YS02001898YS02001901    1.00   0.04  0.00  0.00  0.96  0.00  0.00  0.00  0.01  0.00
  YS02001901YS02001904    1.00   0.04  0.00  0.00  0.96  0.00  0.00  0.00  0.00  0.00
  YS02001904YS02001907    1.00   0.00  0.04  0.00  0.96  0.00  0.00  0.00  0.00  0.00
  YS02001887YS02001890    1.00   0.00  0.00  0.00  0.99  0.00  0.01  0.00  0.00  0.00
  YS02001652YS02001649    1.00   0.00  0.00  0.00  1.00  0.00  0.00  0.00  0.17  0.00
  YS02001655YS02001652    1.00   0.00  0.00  0.00  0.95  0.00  0.00  0.05  0.02  0.00
  YS02001658YS02001655    1.00   0.00  0.04  0.00  0.94  0.03  0.00  0.00  0.10  0.00
  YS02001661YS02001658    1.00   0.04  0.00  0.00  0.91  0.05  0.00  0.00  0.11  0.00
  YS02001664YS02001661    1.00   0.03  0.00  0.00  0.93  0.04  0.00  0.00  0.20  0.00
  YSB1154YSB6556          1.00   0.03  0.00  0.00  0.97  0.00  0.00  0.00  0.02  0.00
  YSB1174YSB1171          1.00   0.01  0.01  0.00  0.98  0.00  0.00  0.00  0.00  0.00
  YSB1171HS02004479       1.00   0.01  0.00  0.00  0.99  0.00  0.00  0.00  0.10  0.00
  HS02004881HS02006253    1.00   0.01  0.00  0.00  0.78  0.03  0.00  0.17  0.62  0.00
  YS02001793JiankangQianchi    1.00   0.00  0.00  0.00  0.64  0.36  0.00  0.00  0.43  0.00
  YS02001757CaochengTiaoxuchi    1.00   0.00  0.06  0.00  0.94  0.00  0.00  0.00  0.00  0.00
  WSF200WS02003060        1.00   0.00  0.01  0.00  0.97  0.02  0.00  0.00  0.24  0.00
  1                       1.00   0.00  0.00  0.00  0.00  1.00  0.00  0.00  0.50  0.00
  
  
  *************************
  Conduit Surcharge Summary
  *************************
  
  ----------------------------------------------------------------------------
                                                           Hours        Hours 
                         --------- Hours Full --------   Above Full   Capacity
  Conduit                Both Ends  Upstream  Dnstream   Normal Flow   Limited
  ----------------------------------------------------------------------------
  WS02006229WS02006228        4.55      4.61      4.55      5.19         4.55
  WS02006256WS02006235        5.97      5.98      6.66      4.41         0.01
  WS02006253WS02006251        2.68      2.68      2.76      0.01         0.02
  WS02006252WS02006251        2.01      2.01      3.04      2.37         0.01
  WS02006251WS02006249        2.71      2.71      2.81      1.33         1.14
  WS02006249WS02006248        2.75      2.75      2.81      4.20         0.01
  WS02006248WS02006247        2.81      2.81      3.06      0.01         0.01
  WS02006247WS02006245        3.05      3.09      3.05      4.51         2.94
  WS02006245WS02006243        3.09      3.09      3.20      0.50         0.60
  WS02006243WS02006242        3.24      3.24      3.64      0.01         0.01
  WS02006242WS02006240        3.56      3.56      3.83      2.70         0.01
  WS02006240WS02006239        3.61      3.61      3.77      1.42         1.00
  WS02006239WS02006238        3.95      3.96      4.12      1.57         1.25
  WS02006238WS02006235        4.11      4.11      4.21      0.01         0.01
  WS02006235WS02006234        3.72      3.72      4.08      5.94         0.01
  WS02006234WS02006232        4.02      4.02      4.33      1.37         1.33
  WS02006232WS02006231        2.83      2.83      4.33      1.61         0.01
  WS02006231WS02006230        2.20      2.20      2.95      5.96         0.01
[...]
  YS02001779YS02001774        5.56      5.56      5.74      0.01         0.01
  YS02001649YS02001757        5.76      5.76      5.86      0.01         0.01
  YS02001767YS02001765        5.69      5.69      5.72      0.01         0.01
  YS02006561YS02001783        0.92      0.92      1.19      0.01         0.01
  YS02001783YS02001784        1.14      1.19      1.14      1.58         1.14
  YS02001784YS02001785        1.02      1.14      1.02      2.50         1.02
  YS02001788YS02001790        0.97      0.97      1.60      0.01         0.01
  YS02001790YS02001791        1.59      1.60      1.67      1.07         1.03
  YS02001791YS02001793        1.67      1.67      2.11      0.01         0.01
  YS02001910YS02001907        1.24      1.24      1.91      0.01         0.01
  YS02001786YS02001788        0.97      1.02      0.97      2.06         0.97
  YS02001915YS02001910        1.05      1.05      1.24      0.01         0.01
  YS02001918YS02001915        0.88      0.88      1.05      0.01         0.01
  YS02001923YS02001920        0.73      0.73      0.90      0.01         0.01
  YS02001926YS02001923        0.01      0.01      0.01      0.01         0.01
  YS02001929YS02001926        0.01      0.01      0.01      0.01         0.01
  YS02001920YS02001918        0.88      0.88      0.90      0.01         0.01
  YS02001629YS02163301        5.67      5.67      5.68      0.01         0.01
  YS02001619YS02001622        5.37      5.37      5.41      0.01         0.01
  YS02001622YS02001625        5.41      5.41      5.64      0.01         0.01
  YS02001625YS02001629        5.39      5.39      5.64      0.01         0.01
  YS02163301YS02001633        5.68      5.68      5.72      0.01         0.01
  YS02163601YS02164001        5.72      5.72      5.75      0.01         0.01
  YS02164001YS02001641        5.72      5.72      5.73      0.01         0.03
  YS02001641YS02001644        5.73      5.73      5.73      1.71         2.00
  YS02001647YS02001649        5.62      5.62      5.76      0.01         0.01
  YS02006553YS02006556        1.47      1.47      1.97      0.01         0.01
  YS02006556YS02006558        1.69      1.69      2.04      0.01         0.01
  YSB6556YSB1171              0.01      0.01      0.07      0.01         0.01
  YS02001907YS02006553        2.53      2.53      2.77      0.01         0.01
  YS02006558YS02006561        0.99      1.43      0.99      2.35         0.99
  YS02001633YS02163601        5.71      5.71      5.75      0.01         0.01
  YS02001644YS02001647        5.62      5.62      5.73      0.01         0.01
  YS02001745YS02001748        0.01      0.01      5.22      0.01         0.01
  YS02001748YS02001751        5.27      5.27      5.37      0.01         0.01
  YS02001751YS02001754        5.37      5.37      5.58      0.01         0.01
  YS02001754YS02001757        5.62      5.62      5.86      0.01         0.01
  YS02001882YS02001884        1.06      1.06      1.09      0.01         0.01
  YS02001884YS02001887        1.14      1.14      1.17      0.01         0.01
  YS02001890YS02001895        1.03      1.03      1.26      0.01         0.01
  YS02001895YS02001898        1.02      1.02      1.03      0.01         0.01
  YS02001898YS02001901        1.04      1.04      1.13      0.01         0.01
  YS02001901YS02001904        1.10      1.10      1.13      0.01         0.01
  YS02001904YS02001907        1.10      1.10      2.00      0.01         0.01
  YS02001887YS02001890        1.19      1.19      1.23      0.16         0.01
  YS02001652YS02001649        5.63      5.63      5.76      0.01         0.01
  YS02001655YS02001652        5.40      5.40      5.61      0.01         0.01
  YS02001658YS02001655        5.25      5.25      5.40      0.01         0.01
  YS02001661YS02001658        0.12      0.12      5.25      0.01         0.01
  YS02001664YS02001661        0.01      0.01      1.30      0.01         0.01
  HS02004881HS02006253        0.01      0.01      1.40      0.01         0.01
  YS02001793JiankangQianchi        2.00      2.00      3.93      0.01         0.01
  YS02001757CaochengTiaoxuchi        5.11      5.11      5.86      0.01         0.01
  
  
  ***************
  Pumping Summary
  ***************
  
  ---------------------------------------------------------------------------------------------------------
                                                  Min       Avg       Max     Total     Power    % Time Off
                        Percent   Number of      Flow      Flow      Flow    Volume     Usage    Pump Curve
  Pump                 Utilized   Start-Ups       LPS       LPS       LPS  10^6 ltr     Kw-hr    Low   High
  ---------------------------------------------------------------------------------------------------------
  CC-Pump-1               63.82           2      0.00    185.64    200.00     3.300      3.54    0.0    0.0
  CC-Pump-2               42.54           6      0.00     97.52    200.00     1.500      2.08    0.0    0.0
  JK-Pump-1               63.83           4      0.00    223.53    300.00     3.800     58.95    0.0    0.0
  JK-Pump-2               55.33           5      0.00    405.07    683.00     6.127     89.27    0.0   95.3
  XR-Pump-1               97.87           2      0.00     93.41     95.00     2.508     23.23    0.0    0.0
  XR-Pump-2               97.87           2      0.00     93.41     95.00     2.508     23.23    0.0    0.0
  XR-Pump-3               93.62           3      0.00     93.34     95.00     2.394     20.88    0.0    0.0
  XR-Pump-4               93.62           3      0.00     93.34     95.00     2.394     20.88    0.0    0.0
  
  
  ***************************
  Link Pollutant Load Summary
  ***************************
  
  ------------------------------------------------------------------------------------------
                                 COD            SS            TN            TP         NH4-N
  Link                            kg            kg            kg            kg            kg
  ------------------------------------------------------------------------------------------
  WS02003066WSF200           926.739      1727.274        23.951         2.074        12.564
  WS02006287WS02006284       319.508       608.183        10.316         1.015         5.679
  WS02006284WS02006280       319.996       608.986        10.362         1.021         5.708
  WS02006280WS02006229       319.937       608.871        10.359         1.021         5.707
  WS02006229WS02006228       936.388      1744.064        23.656         2.014        12.331
  WS02006256WS02006235       212.996       392.675         4.782         0.377         2.431
  WS02006253WS02006251        62.469       122.607         1.397         0.106         0.696
  WS02006252WS02006251       398.643       726.513         8.333         0.597         4.094
  WS02006251WS02006249       451.338       831.477         9.525         0.689         4.689
  WS02006249WS02006248       416.955       766.538         8.809         0.637         4.338
  WS02006248WS02006247       415.960       764.722         8.791         0.636         4.329
  WS02006247WS02006245       415.136       763.250         8.772         0.634         4.320
  WS02006245WS02006243       414.274       761.795         8.750         0.633         4.309
  WS02006243WS02006242       413.625       760.654         8.738         0.632         4.304
  WS02006242WS02006240       412.545       758.752         8.715         0.630         4.292
  WS02006240WS02006239       412.075       757.913         8.709         0.630         4.290
  WS02006239WS02006238       412.427       758.371         8.742         0.634         4.311
  WS02006238WS02006235       412.253       757.830         8.756         0.637         4.320
  WS02006235WS02006234       621.966      1144.911        13.426         1.003         6.689
  WS02006234WS02006232       621.041      1143.256        13.411         1.002         6.683
  WS02006232WS02006231       620.058      1141.511        13.389         1.001         6.672
  WS02006231WS02006230       619.055      1139.705        13.369         0.999         6.662
  WS02006230WS02006229       617.622      1137.244        13.331         0.996         6.642
  WS02006228WS02006109       935.069      1741.734        23.627         2.012        12.316
  WS02006116WS02004401       945.643      1760.992        24.407         2.110        12.797
  WS02006115WS02006116       947.504      1764.281        24.452         2.114        12.820
  WS02006113WS02006111       939.732      1748.599        24.338         2.105        12.771
  WS02006112WS02006115       949.313      1767.440        24.508         2.119        12.850
  WS02006111WS02006112       939.051      1747.381        24.326         2.104        12.765
  WS02006110WS02006113       940.618      1750.135        24.365         2.107        12.786
  WS02006109WS02006110       942.193      1752.897        24.416         2.112        12.813
  WS02004411WS02004412       931.570      1735.820        24.110         2.089        12.652
  WS02004401WS02004402       943.813      1757.776        24.352         2.105        12.767
  WS02004413WS02003067       927.767      1729.173        23.976         2.076        12.577
  WS02004412WS02004413       929.825      1732.729        24.061         2.085        12.626
  WS02004410WS02004411       933.134      1738.611        24.152         2.093        12.674
  WS02004409WS02004410       934.739      1741.456        24.197         2.097        12.698
  WS02004407WS02004409       936.188      1744.047        24.232         2.100        12.716
  WS02004406WS02004407       936.751      1745.088        24.240         2.100        12.719
  WS02004405WS02004406       939.109      1749.206        24.331         2.109        12.771
  WS02004404WS02004405       940.710      1752.118        24.341         2.108        12.771
  WS02004403WS02004404       940.611      1752.134        24.262         2.097        12.719
  WS02004402WS02004403       942.109      1754.767        24.308         2.101        12.744
  WS02004139WS02001211      1369.762      2274.745       111.116        13.563        68.490
  WS02004138WS02004139      1376.167      2285.437       111.613        13.623        68.795
  WS02003067WS02003066       927.039      1727.822        23.961         2.075        12.569
  WS02001213WS02003059      1402.616      2326.344       114.529        13.993        70.635
  WS02001212WS02001213      1412.139      2342.105       115.305        14.088        71.114
  WS02001211WS02001212      1414.052      2345.239       115.468        14.108        71.214
  WS02003072WS02003073      2428.861      4211.412       148.482        17.325        89.469
  WS02003069WS02003072      2433.811      4219.585       148.859        17.370        89.700
  WS02003060WS02003069      2436.716      4224.623       149.011        17.387        89.790
  WS02003059WS02003060      1399.498      2321.060       114.309        13.967        70.501
  HS02004901HS02004770        13.093        25.473         0.248         0.019         0.116
  HS02004876HS02004881        45.518        90.354         0.999         0.073         0.491
  HS02004870HS02004876        34.384        68.109         0.798         0.060         0.395
  HS02004842HS02004848         6.456        12.343         0.134         0.009         0.062
  HS02004837HS02004842        11.055        19.634         0.603         0.068         0.356
  HS02004830HS02004837        70.297       122.726         4.643         0.552         2.827
  HS02004824HS02004830        71.070       123.984         4.715         0.561         2.871
  HS02004817HS02004824        97.165       176.410         5.254         0.596         3.135
  HS02004770HS02004777        49.663        97.716         1.021         0.069         0.472
  HS02004799HS02004480       162.335       310.864         4.263         0.379         2.210
  HS02004792HS02004799       147.281       280.142         4.029         0.367         2.105
  HS02004788HS02004792        82.821       157.698         2.666         0.255         1.440
  HS02004785HS02004788        51.124       100.058         1.172         0.089         0.567
  HS02004777HS02004785        50.449        98.950         1.112         0.081         0.530
  HS02004480HS02004478       204.834       395.221         4.972         0.429         2.543
  HS02004479HS02004480        46.123        90.108         1.036         0.091         0.538
  HS02004862HS02004870        25.801        50.343         0.628         0.050         0.314
  HS02004848HS02004852        10.252        19.885         0.210         0.014         0.097
  HS02004856HS02004862        17.525        34.751         0.350         0.023         0.164
  HS02004852HS02004856        10.255        19.890         0.210         0.014         0.097
  HS02004802HS02004478       115.344       214.057         5.398         0.592         3.169
  HS02004478WS02006287       319.718       608.547        10.332         1.017         5.690
  HS02004817HS02004807        95.861       174.319         5.130         0.581         3.057
  HS02004807HS02004802       115.601       214.459         5.430         0.596         3.190
  YS02001759YS02001757       351.209       645.208         7.002         0.487         3.421
  YS02001762YS02001759       168.425       310.153         3.555         0.251         1.759
  YS02001765YS02001762       169.258       312.383         3.589         0.254         1.778
  YS02001770YS02001767       170.161       315.869         3.432         0.229         1.669
  YS02001774YS02001770       264.385       514.946         5.081         0.338         2.455
  YS02001779YS02001774       263.411       513.026         5.159         0.350         2.511
  YS02001649YS02001757       339.099       611.774         6.776         0.469         3.249
  YS02001767YS02001765       170.462       315.206         3.629         0.258         1.800
  YS02006561YS02001783      1020.692      1891.384        21.442         1.603        10.677
  YS02001783YS02001784      1020.549      1891.147        21.437         1.603        10.675
  YS02001784YS02001785      1027.870      1902.880        22.150         1.692        11.121
  YS02001788YS02001790      1028.453      1903.823        22.222         1.701        11.166
  YS02001790YS02001791      1029.480      1905.510        22.322         1.714        11.229
  YS02001791YS02001793      1029.322      1905.220        22.316         1.713        11.226
  YS02001910YS02001907       391.789       722.367         9.482         0.730         4.870
  YS02001786YS02001788      1028.110      1903.297        22.179         1.696        11.139
  YS02001915YS02001910       391.862       722.486         9.434         0.723         4.838
  YS02001918YS02001915       190.711       336.761         5.305         0.484         2.863
  YS02001923YS02001920       169.053       301.060         3.332         0.240         1.634
  YS02001926YS02001923       166.906       297.364         3.227         0.229         1.573
  YS02001929YS02001926       164.832       293.787         3.121         0.217         1.509
  YS02001920YS02001918       189.209       333.471         5.252         0.480         2.833
  YS02001629YS02163301        96.120       169.960         2.029         0.131         0.946
  YS02001619YS02001622       175.889       321.160         3.602         0.236         1.684
  YS02001622YS02001625       174.690       319.253         3.573         0.234         1.671
  YS02001625YS02001629        97.193       171.714         2.053         0.132         0.957
  YS02163301YS02001633        96.510       170.887         2.032         0.132         0.949
  YS02163601YS02164001       405.668       733.039         7.898         0.562         3.783
  YS02164001YS02001641       405.152       732.159         7.878         0.560         3.772
  YS02001641YS02001644       405.204       732.164         7.873         0.560         3.769
  YS02001647YS02001649       432.322       793.943         8.504         0.592         4.053
  YS02006553YS02006556       686.821      1261.917        14.816         1.137         7.464
  YS02006556YS02006558       686.714      1261.699        14.787         1.133         7.445
  YSB6556YSB1171              26.521        51.967         0.537         0.045         0.272
  YS02001907YS02006553       686.983      1262.244        14.826         1.138         7.470
  YS02006558YS02006561      1020.648      1891.302        21.440         1.603        10.676
  YS02001633YS02163601       406.396       734.176         7.879         0.558         3.767
  YS02001644YS02001647       439.182       806.258         8.622         0.601         4.109
  YS02001745YS02001748       249.708       466.925         5.470         0.377         2.715
  YS02001748YS02001751       248.052       463.706         5.536         0.389         2.765
  YS02001751YS02001754       247.052       462.056         5.517         0.388         2.757
  YS02001754YS02001757       247.827       463.218         5.682         0.411         2.864
  YS02001882YS02001884         2.965         5.122         0.060         0.005         0.030
  YS02001884YS02001887         6.905        12.234         0.136         0.011         0.068
  YS02001890YS02001895       451.009       846.529         8.302         0.624         4.050
  YS02001895YS02001898       450.857       846.335         8.296         0.624         4.046
  YS02001898YS02001901       450.632       845.946         8.291         0.623         4.044
  YS02001901YS02001904       450.499       845.763         8.298         0.625         4.049
  YS02001904YS02001907       450.704       846.067         8.351         0.632         4.083
  YS02001887YS02001890       468.302       880.826         8.646         0.653         4.223
  YS02001652YS02001649       200.287       372.568         4.029         0.290         1.890
  YS02001655YS02001652       200.796       373.398         4.043         0.291         1.897
  YS02001658YS02001655       200.314       372.644         3.956         0.280         1.840
  YS02001661YS02001658       202.820       377.100         4.007         0.283         1.864
  YS02001664YS02001661       218.684       403.093         4.367         0.307         2.028
  YSB1154YSB6556              26.084        51.270         0.486         0.038         0.239
  YSB1174YSB1171              18.021        35.563         0.361         0.029         0.180
  YSB1171HS02004479           46.089        90.054         1.039         0.092         0.540
  HS02004881HS02006253        51.753       103.210         1.105         0.080         0.541
  YS02001793JiankangQianchi      1030.012      1906.249        22.358         1.718        11.251
  YS02001757CaochengTiaoxuchi       630.802      1137.538        13.331         0.951         6.548
  WSF200WS02003060           926.581      1726.911        23.965         2.076        12.574
  1                         2433.865      4218.549       149.185        17.416        89.917
  CC-Pump-1                  276.138       503.657         5.769         0.414         2.835
  CC-Pump-2                  122.531       222.901         2.564         0.183         1.259
  JK-Pump-1                  275.738       513.948         5.980         0.463         3.014
  JK-Pump-2                  492.775       919.611        10.288         0.771         5.121
  XR-Pump-1                  355.657       589.994        28.997         3.542        17.881
  XR-Pump-2                  355.657       589.994        28.997         3.542        17.881
  XR-Pump-3                  334.330       555.866        26.967         3.289        16.614
  XR-Pump-4                  334.330       555.866        26.967         3.289        16.614
  

  Analysis begun on:  Tue Jul 13 18:45:51 2021
  Analysis ended on:  Tue Jul 13 18:45:54 2021
  Total elapsed time: 00:00:03