
  EPA STORM WATER MANAGEMENT MODEL - VERSION 5.1 (Build 5.3.0.dev0)
  --------------------------------------------------------------

  WARNING 04: minimum elevation drop used for Conduit WS02004404WS02004405
  WARNING 03: negative offset ignored for Link YS02001904YS02001907
  
  *********************************************************
  NOTE: The summary statistics displayed in this report are
  based on results found at every computational time step,  
  not just on results from each reporting time step.
  *********************************************************
  
  ****************
  Analysis Options
  ****************
  Flow Units ............... LPS
  Process Models:
    Rainfall/Runoff ........ YES
    RDII ................... NO
    Snowmelt ............... NO
    Groundwater ............ NO
    Flow Routing ........... YES
    Ponding Allowed ........ NO
    Water Quality .......... YES
  Infiltration Method ...... HORTON
  Flow Routing Method ...... DYNWAVE
  Surcharge Method ......... EXTRAN
  Starting Date ............ 08/28/2015 08:00:00
  Ending Date .............. 08/28/2015 15:50:00
  Antecedent Dry Days ...... 8.0
  Report Time Step ......... 00:01:00
  Wet Time Step ............ 00:01:00
  Dry Time Step ............ 00:01:00
  Routing Time Step ........ 5.00 sec
  Variable Time Step ....... YES
  Maximum Trials ........... 8
  Number of Threads ........ 4
  Head Tolerance ........... 0.001500 m
  
  
  **************************        Volume         Depth
  Runoff Quantity Continuity     hectare-m            mm
  **************************     ---------       -------
  Total Precipitation ......         6.144        13.452
  Evaporation Loss .........         0.000         0.000
  Infiltration Loss ........         1.064         2.328
  Surface Runoff ...........         4.147         9.079
  Final Storage ............         0.935         2.047
  Continuity Error (%) .....        -0.020
  
  
  **************************           COD            SS            TN            TP         NH4-N
  Runoff Quality Continuity             kg            kg            kg            kg            kg
  **************************    ----------    ----------    ----------    ----------    ----------
  Initial Buildup ..........     41378.656     70582.865      1804.177       168.684      1032.807
  Surface Buildup ..........        21.799        40.924         2.400         0.218         1.395
  Wet Deposition ...........         0.000         0.000         0.000         0.000         0.000
  Sweeping Removal .........         0.000         0.000         0.000         0.000         0.000
  Infiltration Loss ........        97.311       184.943         1.849         0.130         0.881
  BMP Removal ..............         0.000         0.000         0.000         0.000         0.000
  Surface Runoff ...........      3769.819      7064.251        72.781         4.964        34.599
  Remaining Buildup ........     37531.916     63371.884      1731.919       163.806       998.709
  Continuity Error (%) .....         0.003         0.004         0.002         0.001         0.001
  
  
  **************************        Volume        Volume
  Flow Routing Continuity        hectare-m      10^6 ltr
  **************************     ---------     ---------
  Dry Weather Inflow .......         0.616         6.165
  Wet Weather Inflow .......         4.145        41.451
  Groundwater Inflow .......         0.000         0.000
  RDII Inflow ..............         0.000         0.000
  External Inflow ..........         0.102         1.024
  External Outflow .........         2.001        20.009
  Flooding Loss ............         2.420        24.200
  Evaporation Loss .........         0.000         0.000
  Exfiltration Loss ........         0.000         0.000
  Initial Stored Volume ....         0.076         0.761
  Final Stored Volume ......         0.653         6.529
  Continuity Error (%) .....        -2.707
  
  
  **************************           COD            SS            TN            TP         NH4-N
  Quality Routing Continuity            kg            kg            kg            kg            kg
  **************************    ----------    ----------    ----------    ----------    ----------
  Dry Weather Inflow .......      1541.201      2465.922       147.955        18.494        92.472
  Wet Weather Inflow .......      3769.009      7062.897        72.763         4.963        34.591
  Groundwater Inflow .......         0.000         0.000         0.000         0.000         0.000
  RDII Inflow ..............         0.000         0.000         0.000         0.000         0.000
  External Inflow ..........       183.418       293.469        17.608         2.201        11.005
  External Outflow .........      2385.421      4132.600       148.043        17.326        89.337
  Flooding Loss ............      2399.873      4470.973        62.184         5.457        32.759
  Exfiltration Loss ........         0.000         0.000         0.000         0.000         0.000
  Mass Reacted .............         0.000         0.000         0.000         0.000         0.000
  Initial Stored Mass ......         0.000         0.000         0.000         0.000         0.000
  Final Stored Mass ........       545.572       940.423        24.096         2.561        13.937
  Continuity Error (%) .....         2.963         2.833         1.680         1.226         1.475
  
  
  *************************
  Highest Continuity Errors
  *************************
  Node HS02004842 (13.41%)
  Node JK-storage (-12.91%)
  Node YS02001884 (10.42%)
  Node WS02006253 (2.68%)
  Node HS02004817 (2.53%)
  
  
  ***************************
  Time-Step Critical Elements
  ***************************
  Link WS02006252WS02006251 (66.35%)
  Link WS02006280WS02006229 (10.79%)
  Link WS02006238WS02006235 (5.16%)
  Link YS02001793JiankangQianchi (3.78%)
  Link YS02006556YS02006558 (2.57%)
  
  
  ********************************
  Highest Flow Instability Indexes
  ********************************
  Link YS02163601YS02164001 (44)
  Link YS02163301YS02001633 (44)
  Link YS02001629YS02163301 (43)
  Link YS02001619YS02001622 (42)
  Link YS02164001YS02001641 (41)
  
  
  *************************
  Routing Time Step Summary
  *************************
  Minimum Time Step           :     0.50 sec
  Average Time Step           :     1.16 sec
  Maximum Time Step           :     5.00 sec
  Percent in Steady State     :    -0.00
  Average Iterations per Step :     4.41
  Percent Not Converging      :    19.08
  
  
  ***************************
  Subcatchment Runoff Summary
  ***************************
  
  ------------------------------------------------------------------------------------------------------------------------------
                            Total      Total      Total      Total     Imperv       Perv      Total       Total     Peak  Runoff
                           Precip      Runon       Evap      Infil     Runoff     Runoff     Runoff      Runoff   Runoff   Coeff
  Subcatchment                 mm         mm         mm         mm         mm         mm         mm    10^6 ltr      LPS
  ------------------------------------------------------------------------------------------------------------------------------
  sub0                      13.45       0.00       0.00       0.63      12.47       0.31      12.77        0.01     3.75   0.950
  sub1                      13.45       0.00       0.00       1.12      11.88       0.36      12.24        0.08    25.66   0.910
  sub2                      13.45       0.00       0.00       4.44       8.39       0.53       8.92        0.08    25.29   0.663
  sub3                      13.45       0.00       0.00       4.56       8.35       0.42       8.77        0.20    55.75   0.652
  sub4                      13.45       0.00       0.00       1.22      11.71       0.26      11.97        0.25    65.52   0.890
  sub5                      13.45       0.00       0.00       0.68      12.41       0.26      12.67        0.14    44.76   0.942
  sub7                      13.45       0.00       0.00       0.86      12.18       0.35      12.53        0.04    14.26   0.931
  sub8                      13.45       0.00       0.00       0.87      12.17       0.34      12.50        0.08    26.26   0.930
  sub9                      13.45       0.00       0.00       0.88      12.17       0.33      12.50        0.06    19.64   0.929
  sub10                     13.45       0.00       0.00       0.78      12.29       0.29      12.58        0.14    44.00   0.935
  sub11                     13.45       0.00       0.00       0.77      12.30       0.31      12.61        0.15    48.45   0.938
  sub12                     13.45       0.00       0.00       1.25      11.66       0.50      12.16        0.11    38.10   0.904
  sub14                     13.45       0.00       0.00       0.88      12.16       0.33      12.49        0.12    38.67   0.929
  sub15                     13.45       0.00       0.00       3.37       9.35       0.66      10.01        0.17    57.01   0.744
  sub16                     13.45       0.00       0.00       3.56       8.97       0.88       9.85        0.10    37.63   0.732
  sub17                     13.45       0.00       0.00       3.47       9.10       0.84       9.94        0.09    30.67   0.739
  sub22                     13.45       0.00       0.00       4.98       7.63       0.81       8.43        0.53   184.54   0.627
  sub23                     13.45       0.00       0.00       4.17       8.43       0.81       9.24        0.44   154.22   0.687
  sub60                     13.45       0.00       0.00       1.53       9.85       0.09       9.93        3.01   438.14   0.738
  sub61                     13.45       0.00       0.00       2.16       9.95       0.12      10.07        3.11   536.45   0.749
  sub62                     13.45       0.00       0.00       0.98      10.84       0.10      10.94        3.36   552.35   0.813
  sub63                     13.45       0.00       0.00       3.77       8.69       0.14       8.83        2.67   492.63   0.656
  sub64                     13.45       0.00       0.00       1.93       9.45       0.09       9.54        2.90   416.72   0.709
  sub65                     13.45       0.00       0.00       1.67       9.61       0.08       9.70        2.98   423.09   0.721
  sub66                     13.45       0.00       0.00       3.81       8.10       0.09       8.18        2.51   380.66   0.608
  sub67                     13.45       0.00       0.00       0.95      11.38       0.13      11.51        3.55   679.52   0.856
  sub68                     13.45       0.00       0.00       1.75      10.45       0.13      10.59        3.26   586.26   0.787
  sub69                     13.45       0.00       0.00       1.83      10.79       0.19      10.98        2.57   544.72   0.816
  sub70                     13.45      11.20       0.00       7.51      14.65       0.88      15.52        3.55   494.81   0.630
  sub71                     13.45       0.00       0.00       0.99      10.58       0.09      10.67        2.52   389.24   0.793
  sub72                     13.45       0.00       0.00       0.89       8.56       0.05       8.61        1.75   189.18   0.640
  1                         13.45      15.11       0.00       1.37      16.56       4.63      21.19        4.98   484.42   0.742
  2                         13.45       0.00       0.00       3.02       3.21       1.96       5.17        2.07   340.45   0.384
  
  
  ****************************
  Subcatchment Washoff Summary
  ****************************
  
  ------------------------------------------------------------------------------------------
                                 COD            SS            TN            TP         NH4-N
  Subcatchment                    kg            kg            kg            kg            kg
  ------------------------------------------------------------------------------------------
  sub0                         2.670         5.197         0.046         0.004         0.022
  sub1                        11.241        22.423         0.210         0.015         0.101
  sub2                         6.894        13.384         0.145         0.010         0.067
  sub3                        16.924        32.573         0.350         0.024         0.161
  sub4                        25.772        51.904         0.510         0.031         0.245
  sub5                        25.778        50.682         0.460         0.035         0.223
  sub7                         5.751        11.638         0.108         0.007         0.052
  sub8                         8.581        17.755         0.171         0.010         0.082
  sub9                         7.353        15.005         0.142         0.009         0.068
  sub10                       21.202        42.223         0.389         0.028         0.188
  sub11                       20.657        41.614         0.386         0.026         0.187
  sub12                       17.724        35.094         0.321         0.024         0.155
  sub14                       15.732        31.800         0.298         0.020         0.144
  sub15                       20.231        39.321         0.389         0.028         0.182
  sub16                       13.129        25.518         0.249         0.019         0.117
  sub17                       12.049        23.208         0.222         0.017         0.105
  sub22                       62.582       119.432         1.186         0.090         0.554
  sub23                       36.683        72.439         0.776         0.051         0.357
  sub60                      243.520       456.962         4.842         0.298         2.321
  sub61                      302.151       564.434         5.627         0.386         2.710
  sub62                      313.722       596.076         6.119         0.388         2.938
  sub63                      223.275       410.850         4.468         0.314         2.075
  sub64                      305.877       553.773         5.626         0.410         2.687
  sub65                      313.037       569.066         5.795         0.415         2.772
  sub66                      176.068       321.340         3.608         0.236         1.687
  sub67                      466.222       877.505         8.365         0.616         4.045
  sub68                      332.037       626.413         6.347         0.429         3.034
  sub69                      298.258       568.561         5.590         0.393         2.674
  sub70                      502.897       962.303        10.037         0.699         4.710
  sub71                      206.745       396.330         4.242         0.246         2.030
  sub72                      164.385       293.107         3.069         0.210         1.476
  1                          349.075       671.606         7.102         0.495         3.297
  2                           42.749        75.577         1.214         0.073         0.518
  ------------------------------------------------------------------------------------------
  System                    4570.974      8595.115        88.408         6.057        41.983
  
  
  ******************
  Node Depth Summary
  ******************
  
  ---------------------------------------------------------------------------------
                                 Average  Maximum  Maximum  Time of Max    Reported
                                   Depth    Depth      HGL   Occurrence   Max Depth
  Node                 Type       Meters   Meters   Meters  days hr:min      Meters
  ---------------------------------------------------------------------------------
  WS02001211           JUNCTION     0.77     0.85     5.69     0  03:07        0.85
  WS02001212           JUNCTION     0.48     0.58     5.64     0  03:06        0.58
  WS02001213           JUNCTION     0.72     0.85     5.62     0  03:05        0.85
  WS02003069           JUNCTION     0.52     0.72     5.30     0  03:05        0.72
  WS02003072           JUNCTION     0.59     0.76     5.13     0  03:06        0.76
  WS02003073           JUNCTION     0.36     0.48     4.54     0  03:06        0.48
  WS02003060           JUNCTION     0.46     0.63     5.57     0  03:05        0.63
  WS02003066           JUNCTION     0.26     0.39     5.94     0  03:04        0.39
  WS02003059           JUNCTION     0.77     0.91     5.60     0  03:05        0.91
  WS02003067           JUNCTION     0.62     0.82     6.14     0  03:03        0.82
  WS02004401           JUNCTION     0.74     1.24     7.24     0  03:01        1.23
  WS02004402           JUNCTION     0.77     1.22     7.18     0  03:03        1.22
  WS02004403           JUNCTION     0.79     1.20     7.13     0  03:02        1.19
  WS02004404           JUNCTION     0.86     1.25     7.10     0  03:01        1.24
  WS02004406           JUNCTION     0.86     1.16     6.99     0  03:03        1.16
  WS02004409           JUNCTION     0.55     0.96     6.73     0  03:03        0.96
  WS02004410           JUNCTION     0.57     0.95     6.67     0  03:03        0.95
  WS02004411           JUNCTION     0.59     0.93     6.61     0  03:03        0.93
  WS02004412           JUNCTION     0.60     0.90     6.54     0  03:03        0.90
  WS02004413           JUNCTION     0.76     1.02     6.49     0  03:03        1.02
  WS02004405           JUNCTION     0.86     1.22     7.07     0  03:02        1.21
  WS02006109           JUNCTION     0.84     1.66     8.28     0  03:02        1.65
  WS02006110           JUNCTION     0.81     1.45     8.04     0  03:02        1.44
  WS02006111           JUNCTION     0.26     0.88     7.59     0  03:02        0.88
  WS02006112           JUNCTION     0.92     1.56     7.44     0  03:01        1.55
  WS02006113           JUNCTION     0.38     0.92     7.82     0  03:02        0.92
  WS02006115           JUNCTION     0.64     1.22     7.36     0  03:02        1.21
  WS02006116           JUNCTION     0.72     1.26     7.30     0  03:02        1.25
  WS02006230           JUNCTION     0.86     1.88     8.62     0  03:02        1.87
  WS02006231           JUNCTION     0.60     1.52     8.65     0  03:02        1.51
  WS02006232           JUNCTION     0.75     1.62     8.66     0  03:02        1.61
  WS02006234           JUNCTION     0.69     1.53     8.69     0  03:02        1.52
  WS02006235           JUNCTION     0.73     1.54     8.71     0  03:02        1.52
  WS02006238           JUNCTION     0.76     1.56     8.70     0  03:02        1.54
  WS02006240           JUNCTION     0.67     1.40     8.69     0  03:02        1.39
  WS02006242           JUNCTION     0.72     1.43     8.70     0  03:02        1.42
  WS02006243           JUNCTION     0.61     1.28     8.70     0  03:02        1.27
  WS02006245           JUNCTION     0.58     1.21     8.70     0  03:02        1.20
  WS02006247           JUNCTION     0.59     1.20     8.70     0  03:02        1.19
  WS02006248           JUNCTION     0.53     1.10     8.69     0  02:56        1.10
  WS02006249           JUNCTION     0.55     1.09     8.69     0  02:56        1.09
  WS02006239           JUNCTION     0.72     1.49     8.70     0  03:02        1.48
  WS02006251           JUNCTION     0.53     1.27     8.94     0  07:42        1.14
  WS02006252           JUNCTION     0.33     0.83     9.07     0  07:42        0.70
  WS02006253           JUNCTION     0.56     1.33     8.98     0  07:42        1.17
  WS02006256           JUNCTION     1.76     2.35     9.28     0  00:00        2.35
  WS02004138           JUNCTION     0.19     0.20     7.45     0  00:00        0.19
  WS02004139           JUNCTION     0.72     0.79     5.70     0  03:07        0.79
  WS02004407           JUNCTION     0.25     0.40     6.71     0  03:03        0.40
  WS02006228           JUNCTION     0.85     1.83     8.48     0  03:02        1.82
  WS02006229           JUNCTION     0.84     1.90     8.59     0  03:02        1.89
  WS02006280           JUNCTION     0.07     0.30     8.57     0  03:05        0.30
  WS02006284           JUNCTION     0.37     0.65     9.04     0  03:02        0.64
  WS02006287           JUNCTION     0.10     0.39     9.34     0  03:02        0.39
  WSF200               JUNCTION     0.25     0.44     5.67     0  03:04        0.44
  HS02004901           JUNCTION     0.13     0.38    10.20     0  03:01        0.37
  HS02004881           JUNCTION     0.01     0.05     9.08     0  03:01        0.05
  HS02004876           JUNCTION     0.04     0.16     9.19     0  03:01        0.16
  HS02004870           JUNCTION     0.02     0.09     9.38     0  03:01        0.09
  HS02004862           JUNCTION     0.02     0.11     9.49     0  03:01        0.11
  HS02004856           JUNCTION     0.08     0.15     9.58     0  03:01        0.15
  HS02004852           JUNCTION     0.01     0.07     9.59     0  03:02        0.07
  HS02004848           JUNCTION     0.01     0.07     9.67     0  03:01        0.07
  HS02004842           JUNCTION     0.33     0.40     9.67     0  03:01        0.40
  HS02004837           JUNCTION     0.03     0.09     9.67     0  03:01        0.09
  HS02004830           JUNCTION     0.04     0.10     9.57     0  03:01        0.10
  HS02004824           JUNCTION     0.02     0.13     9.53     0  03:02        0.13
  HS02004817           JUNCTION     0.44     0.69     9.54     0  03:02        0.69
  HS02004807           JUNCTION     0.13     0.36     9.53     0  03:02        0.36
  HS02004802           JUNCTION     0.17     0.39     9.52     0  03:02        0.39
  HS02004799           JUNCTION     0.12     0.46     9.68     0  03:01        0.46
  HS02004792           JUNCTION     0.03     0.22     9.74     0  03:01        0.21
  HS02004788           JUNCTION     0.03     0.16    10.05     0  03:02        0.16
  HS02004785           JUNCTION     0.05     0.25    10.15     0  03:02        0.25
  HS02004777           JUNCTION     0.15     0.39    10.19     0  03:01        0.39
  HS02004770           JUNCTION     0.12     0.37    10.20     0  03:01        0.36
  HS02004480           JUNCTION     0.08     0.38     9.62     0  03:01        0.38
  HS02004479           JUNCTION     0.12     0.42     9.62     0  03:01        0.42
  HS02004478           JUNCTION     0.06     0.28     9.50     0  03:01        0.28
  YS02001745           JUNCTION     0.74     0.95     8.47     0  03:01        0.95
  YS02001748           JUNCTION     1.14     1.39     8.47     0  03:00        1.39
  YS02001751           JUNCTION     1.32     1.58     8.46     0  03:00        1.57
  YS02001754           JUNCTION     1.57     1.84     8.45     0  03:01        1.83
  YS02001762           JUNCTION     1.77     2.05     8.45     0  02:59        2.04
  YS02001765           JUNCTION     1.72     2.00     8.45     0  02:59        1.98
  YS02001767           JUNCTION     1.69     1.96     8.45     0  02:59        1.94
  YS02001770           JUNCTION     1.68     1.95     8.44     0  02:59        1.92
  YS02001774           JUNCTION     1.75     1.99     8.42     0  02:59        1.98
  YS02001779           JUNCTION     1.50     1.68     8.37     0  02:40        1.68
  YS02001882           JUNCTION     0.57     1.63     8.35     0  03:01        1.63
  YS02001884           JUNCTION     0.67     1.74     8.36     0  03:00        1.73
  YS02001759           JUNCTION     1.81     2.09     8.45     0  02:59        2.07
  YS02001887           JUNCTION     0.74     1.82     8.35     0  03:01        1.82
  YS02001890           JUNCTION     0.77     1.81     8.32     0  02:45        1.81
  YS02001898           JUNCTION     0.54     1.56     8.30     0  02:52        1.56
  YS02001901           JUNCTION     0.66     1.68     8.29     0  02:54        1.67
  YS02001904           JUNCTION     0.64     1.64     8.27     0  02:58        1.64
  YS02001907           JUNCTION     0.97     1.96     8.25     0  02:45        1.96
  YS02001910           JUNCTION     0.76     1.79     8.30     0  02:46        1.77
  YS02001915           JUNCTION     0.56     1.61     8.32     0  02:46        1.58
  YS02001918           JUNCTION     0.30     1.29     8.36     0  02:46        1.25
  YS02001619           JUNCTION     1.28     1.49     8.42     0  06:51        1.48
  YS02001629           JUNCTION     1.63     1.85     8.40     0  06:51        1.84
  YS02001641           JUNCTION     1.73     1.94     8.38     0  02:40        1.93
  YS02001644           JUNCTION     1.73     1.92     8.35     0  02:39        1.92
  YS02001652           JUNCTION     1.58     2.11     8.71     0  02:43        1.97
  YS02001655           JUNCTION     1.35     2.12     8.97     0  02:43        1.89
  YS02001920           JUNCTION     0.40     1.37     8.38     0  02:46        1.32
  YS02001923           JUNCTION     0.24     1.14     8.40     0  02:46        1.09
  YS02001926           JUNCTION     0.29     0.94     8.39     0  02:46        0.90
  YS02001929           JUNCTION     0.17     0.70     8.40     0  02:46        0.69
  YS02001658           JUNCTION     1.08     2.08     9.23     0  02:43        1.76
  YS02001661           JUNCTION     0.85     1.95     9.36     0  02:43        1.54
  YS02001664           JUNCTION     0.38     0.57     8.49     0  04:08        0.56
  YS02001622           JUNCTION     1.30     1.51     8.41     0  06:51        1.50
  YS02001633           JUNCTION     1.72     1.96     8.41     0  06:51        1.94
  YS02001649           JUNCTION     1.78     2.05     8.44     0  02:43        2.04
  YS02001757           JUNCTION     1.90     2.18     8.44     0  03:01        2.17
  YS02001895           JUNCTION     0.54     1.57     8.31     0  02:52        1.56
  YS02001625           JUNCTION     1.59     1.78     8.38     0  02:38        1.78
  YS02163301           JUNCTION     1.66     1.89     8.41     0  06:51        1.88
  YS02163601           JUNCTION     1.78     2.00     8.40     0  06:51        1.98
  YS02164001           JUNCTION     1.71     1.93     8.39     0  06:51        1.91
  YS02001647           JUNCTION     1.57     1.80     8.41     0  02:46        1.78
  YSB1154              JUNCTION     0.26     0.57     9.62     0  03:01        0.57
  YSB6556              JUNCTION     0.15     0.45     9.62     0  03:02        0.45
  YSB1174              JUNCTION     0.21     0.52     9.62     0  03:01        0.51
  YSB1171              JUNCTION     0.41     0.72     9.62     0  03:01        0.72
  YS02006553           JUNCTION     0.97     1.97     8.25     0  03:01        1.97
  YS02006561           JUNCTION     0.32     1.08     7.74     0  02:45        1.08
  YS02006556           JUNCTION     0.94     1.93     8.25     0  03:00        1.93
  YS02006558           JUNCTION     0.98     1.98     8.24     0  03:00        1.97
  YS02001783           JUNCTION     0.55     1.63     7.77     0  02:32        1.46
  YS02001784           JUNCTION     0.56     1.48     7.54     0  02:32        1.41
  YS02001786           JUNCTION     0.50     1.58     7.61     0  02:32        1.25
  YS02001788           JUNCTION     0.43     1.31     7.28     0  02:32        1.12
  YS02001790           JUNCTION     0.54     1.96     7.60     0  06:41        1.29
  YS02001791           JUNCTION     0.50     1.62     7.09     0  06:41        1.27
  YS02001793           JUNCTION     0.69     1.91     6.74     0  06:41        1.80
  WSC                  OUTFALL      0.36     0.48     1.15     0  03:07        0.48
  JK-storage           STORAGE      2.69     5.80     6.60     0  02:31        5.80
  CC-storage           STORAGE      1.16     1.42     8.42     0  03:13        1.42
  XR-storage           STORAGE      6.80     7.72     5.72     0  02:55        7.72
  
  
  *******************
  Node Inflow Summary
  *******************
  
  -------------------------------------------------------------------------------------------------
                                  Maximum  Maximum                  Lateral       Total        Flow
                                  Lateral    Total  Time of Max      Inflow      Inflow     Balance
                                   Inflow   Inflow   Occurrence      Volume      Volume       Error
  Node                 Type           LPS      LPS  days hr:min    10^6 ltr    10^6 ltr     Percent
  -------------------------------------------------------------------------------------------------
  WS02001211           JUNCTION      7.35   390.30     0  03:16       0.207        9.97       0.410
  WS02001212           JUNCTION      0.00   393.23     0  03:16           0        9.93       0.242
  WS02001213           JUNCTION      0.00   395.75     0  03:16           0         9.9       0.311
  WS02003069           JUNCTION      0.32  1329.44     0  03:05     0.00902        20.1       0.201
  WS02003072           JUNCTION      0.00  1329.14     0  03:05           0        20.1       0.232
  WS02003073           JUNCTION      1.82  1331.20     0  03:06      0.0514        20.1       0.268
  WS02003060           JUNCTION     16.53  1329.01     0  03:04       0.466        20.1       0.190
  WS02003066           JUNCTION      0.00   938.63     0  03:04           0        9.84       0.060
  WS02003059           JUNCTION      0.00   398.66     0  03:15           0        9.88       0.427
  WS02003067           JUNCTION      0.00   938.10     0  03:04           0        9.85       0.116
  WS02004401           JUNCTION      0.00   940.13     0  03:02           0        10.1       0.267
  WS02004402           JUNCTION      0.00   940.07     0  03:02           0        10.1       0.245
  WS02004403           JUNCTION      0.00   939.71     0  03:02           0        10.1       0.217
  WS02004404           JUNCTION      0.16   940.69     0  03:02     0.00457        10.1       0.156
  WS02004406           JUNCTION      0.00   939.97     0  03:02           0          10       0.382
  WS02004409           JUNCTION      0.00   939.38     0  03:03           0        9.99       0.236
  WS02004410           JUNCTION      0.00   938.50     0  03:03           0        9.97       0.256
  WS02004411           JUNCTION      0.00   937.83     0  03:03           0        9.94       0.256
  WS02004412           JUNCTION      0.00   937.51     0  03:03           0        9.92       0.265
  WS02004413           JUNCTION      0.00   937.99     0  03:04           0        9.89       0.374
  WS02004405           JUNCTION      0.04   941.18     0  03:02     0.00107        10.1       0.231
  WS02006109           JUNCTION      1.23   915.32     0  03:03      0.0347        10.2       0.213
  WS02006110           JUNCTION      0.00   915.44     0  03:03           0        10.2       0.224
  WS02006111           JUNCTION      0.00   915.70     0  03:03           0        10.2       0.061
  WS02006112           JUNCTION     30.67   939.37     0  03:02      0.0853        10.2       0.347
  WS02006113           JUNCTION      0.00   915.47     0  03:03           0        10.2       0.143
  WS02006115           JUNCTION      0.00   939.50     0  03:02           0        10.2       0.277
  WS02006116           JUNCTION      0.00   939.87     0  03:02           0        10.2       0.239
  WS02006230           JUNCTION     10.28   535.33     0  07:42        0.29         7.8       0.261
  WS02006231           JUNCTION      0.00   525.13     0  07:43           0        7.53       0.186
  WS02006232           JUNCTION      0.00   525.26     0  07:43           0        7.54       0.245
  WS02006234           JUNCTION      0.00   524.57     0  07:43           0        7.56       0.145
  WS02006235           JUNCTION      0.00   525.14     0  06:54           0        7.64       0.161
  WS02006238           JUNCTION      0.00   359.39     0  04:52           0        4.18       0.216
  WS02006240           JUNCTION      0.00   364.46     0  04:51           0        4.14       0.414
  WS02006242           JUNCTION      0.00   367.72     0  04:51           0        4.13       0.453
  WS02006243           JUNCTION      0.00   371.66     0  04:51           0        4.12       0.291
  WS02006245           JUNCTION      0.00   378.04     0  06:51           0        4.13       0.398
  WS02006247           JUNCTION      0.00   383.12     0  06:51           0        4.14       0.278
  WS02006248           JUNCTION      0.00   388.23     0  06:51           0        4.15       0.224
  WS02006249           JUNCTION      0.00   428.29     0  07:42           0        4.52       0.350
  WS02006239           JUNCTION      0.00   360.71     0  04:52           0        4.16       0.252
  WS02006251           JUNCTION      0.08   421.04     0  03:30     0.00217        4.59       0.402
  WS02006252           JUNCTION      0.00   400.00     0  04:00           0        4.08       0.014
  WS02006253           JUNCTION      3.75   143.71     0  03:01      0.0103       0.527       2.755
  WS02006256           JUNCTION      0.00   983.00     0  02:50           0        10.3      -0.000
  WS02004138           JUNCTION      0.00   380.00     0  00:00           0         9.8       0.065
  WS02004139           JUNCTION      0.32   395.85     0  00:00     0.00905        9.81       0.468
  WS02004407           JUNCTION      0.00   939.64     0  03:02           0          10       0.106
  WS02006228           JUNCTION      0.00   913.92     0  03:03           0        10.2       0.166
  WS02006229           JUNCTION      0.00   918.64     0  03:01           0        10.2       0.163
  WS02006280           JUNCTION      0.00   680.09     0  03:02           0        2.43       0.012
  WS02006284           JUNCTION      0.10   678.95     0  03:02      0.0027        2.43       0.045
  WS02006287           JUNCTION      0.00   677.57     0  03:02           0        2.43       0.032
  WSF200               JUNCTION      0.00   938.81     0  03:04           0        9.84       0.065
  HS02004901           JUNCTION     37.63    37.63     0  03:01       0.103       0.103       1.741
  HS02004881           JUNCTION     14.26   140.54     0  03:01      0.0422       0.463       0.116
  HS02004876           JUNCTION     25.66   127.63     0  03:01      0.0814       0.422       0.130
  HS02004870           JUNCTION     26.26   103.60     0  03:01      0.0799        0.34       0.035
  HS02004862           JUNCTION     25.49    79.38     0  03:01      0.0888       0.261       0.067
  HS02004856           JUNCTION     19.64    55.42     0  03:01      0.0601       0.173       0.845
  HS02004852           JUNCTION      0.00    37.84     0  03:01           0       0.113       0.053
  HS02004848           JUNCTION     55.75    55.75     0  03:01       0.197       0.197       0.028
  HS02004842           JUNCTION      0.00    16.84     0  03:01           0       0.097      15.491
  HS02004837           JUNCTION     50.35    65.70     0  03:01       0.318       0.402       0.204
  HS02004830           JUNCTION      0.15    64.79     0  03:01     0.00423       0.392       0.316
  HS02004824           JUNCTION     65.57   128.46     0  03:01       0.251       0.642       0.086
  HS02004817           JUNCTION      0.60   124.47     0  03:01      0.0169       0.658       2.600
  HS02004807           JUNCTION     48.45   165.80     0  03:01       0.147       0.788       0.554
  HS02004802           JUNCTION      0.00   165.32     0  03:04           0       0.785       0.507
  HS02004799           JUNCTION     38.67   446.04     0  03:01       0.119        1.42       0.191
  HS02004792           JUNCTION    184.82   411.90     0  03:01        0.54         1.3       0.033
  HS02004788           JUNCTION     58.68   233.43     0  03:01       0.219       0.758       0.053
  HS02004785           JUNCTION      0.15   182.20     0  03:01     0.00423        0.54       0.093
  HS02004777           JUNCTION      0.03   185.02     0  03:01    0.000846       0.541       0.972
  HS02004770           JUNCTION    154.22   188.96     0  03:01       0.441       0.542       0.578
  HS02004480           JUNCTION      0.00   517.16     0  03:01           0        1.66       0.069
  HS02004479           JUNCTION      0.00    75.44     0  03:02           0       0.258       0.286
  HS02004478           JUNCTION      0.00   677.00     0  03:02           0        2.43       0.011
  YS02001745           JUNCTION    438.14   438.14     0  03:01        3.01        3.01       0.356
  YS02001748           JUNCTION      0.04   443.90     0  03:01     0.00127           3       0.736
  YS02001751           JUNCTION      0.01   443.87     0  03:01     0.00031        2.98       0.791
  YS02001754           JUNCTION      0.26   444.41     0  03:01     0.00733        2.96       0.843
  YS02001762           JUNCTION      0.00   312.57     0  02:43           0        2.07       1.043
  YS02001765           JUNCTION      0.00   313.18     0  02:43           0        2.07       1.191
  YS02001767           JUNCTION      0.54   313.22     0  02:43      0.0151        2.09       1.746
  YS02001770           JUNCTION    552.50   673.18     0  03:02        3.37        3.81       0.840
  YS02001774           JUNCTION      0.00   674.29     0  03:01           0        2.14       1.193
  YS02001779           JUNCTION      0.01   674.05     0  03:01    0.000141        2.11       0.733
  YS02001882           JUNCTION      0.00    29.32     0  02:39           0      0.0234      10.558
  YS02001884           JUNCTION      0.00    57.67     0  02:33           0      0.0604      11.635
  YS02001759           JUNCTION    536.49   619.68     0  02:43        3.11        4.71       0.496
  YS02001887           JUNCTION    679.97   679.97     0  03:01        3.56         3.6       0.242
  YS02001890           JUNCTION      0.00   680.53     0  03:01           0        3.55       0.268
  YS02001898           JUNCTION      0.00   517.97     0  03:01           0        3.45       0.089
  YS02001901           JUNCTION      0.00   517.78     0  03:05           0        3.45       0.207
  YS02001904           JUNCTION      0.00   517.78     0  03:00           0        3.44       0.190
  YS02001907           JUNCTION      0.00  1096.03     0  03:02           0        7.77       0.315
  YS02001910           JUNCTION      0.00   579.62     0  03:02           0        4.34       0.281
  YS02001915           JUNCTION    389.26   579.30     0  03:02        2.52        4.37       0.140
  YS02001918           JUNCTION      0.00   240.73     0  02:47           0        1.87       0.093
  YS02001619           JUNCTION    380.66   380.66     0  03:01        2.51        2.51       0.490
  YS02001629           JUNCTION      0.00   197.24     0  02:39           0        1.59       1.850
  YS02001641           JUNCTION      0.00   415.79     0  02:39           0        4.45       0.482
  YS02001644           JUNCTION    416.76  1526.36     0  03:01         2.9        10.8       0.246
  YS02001652           JUNCTION      0.00   501.38     0  03:01           0        2.63       0.891
  YS02001655           JUNCTION      0.15   501.90     0  03:01     0.00434        2.65       0.961
  YS02001920           JUNCTION      2.87   240.33     0  02:47      0.0809        1.86       0.158
  YS02001923           JUNCTION      0.04   239.98     0  02:47     0.00106        1.76       0.055
  YS02001926           JUNCTION      0.05   210.51     0  02:47     0.00147        1.76       0.190
  YS02001929           JUNCTION    189.18   189.18     0  03:01        1.75        1.75       0.036
  YS02001658           JUNCTION      0.00   501.67     0  03:01           0        2.67       0.887
  YS02001661           JUNCTION      0.00   647.90     0  02:45           0        3.14      -0.284
  YS02001664           JUNCTION    492.63   492.63     0  03:01        2.67        3.15       0.200
  YS02001622           JUNCTION      0.00   381.65     0  03:01           0         2.5       1.285
  YS02001633           JUNCTION    423.29   423.29     0  03:01        2.99        4.52       0.718
  YS02001649           JUNCTION      0.00   870.95     0  02:40           0        5.94       0.632
  YS02001757           JUNCTION      0.00  1677.83     0  02:40           0        9.55       0.972
  YS02001895           JUNCTION      0.00   517.70     0  03:00           0        3.45       0.149
  YS02001625           JUNCTION      0.00   408.61     0  03:01           0        2.48       1.599
  YS02163301           JUNCTION      0.00   198.07     0  02:39           0        1.57       1.560
  YS02163601           JUNCTION      0.11   414.66     0  02:39      0.0031        4.48       0.684
  YS02164001           JUNCTION      0.00   415.23     0  02:39           0        4.46       0.459
  YS02001647           JUNCTION      0.00   728.94     0  03:10           0        5.17       0.552
  YSB1154              JUNCTION     44.76    44.76     0  03:01       0.144       0.144       1.017
  YSB6556              JUNCTION      0.00    43.28     0  03:01           0       0.145       0.869
  YSB1174              JUNCTION     38.10    38.10     0  03:01       0.106       0.107       1.222
  YSB1171              JUNCTION      0.00    76.94     0  03:01           0       0.257       2.525
  YS02006553           JUNCTION      0.00   709.37     0  03:46           0        6.69       0.237
  YS02006561           JUNCTION      0.00   984.57     0  03:00           0        9.91       0.008
  YS02006556           JUNCTION      0.00   709.46     0  03:46           0        6.69       0.174
  YS02006558           JUNCTION    587.14   985.77     0  03:00        3.28        9.94       0.053
  YS02001783           JUNCTION      0.00   983.84     0  03:00           0        9.91       0.022
  YS02001784           JUNCTION      1.06   985.58     0  03:00      0.0299        9.94       0.037
  YS02001786           JUNCTION      0.06   985.03     0  03:00     0.00159        9.93       0.038
  YS02001788           JUNCTION      0.07   985.12     0  03:01       0.002        9.93       0.022
  YS02001790           JUNCTION      0.15   985.81     0  03:00     0.00437        9.94       0.024
  YS02001791           JUNCTION      0.00   985.28     0  03:01           0        9.93       0.009
  YS02001793           JUNCTION      0.00   985.96     0  03:00           0        9.94      -0.015
  WSC                  OUTFALL       0.00  1331.49     0  03:07           0          20       0.000
  JK-storage           STORAGE       0.00   985.62     0  03:00           0        10.1     -11.436
  CC-storage           STORAGE       0.00  1678.61     0  02:40           0        7.75       0.823
  XR-storage           STORAGE    1024.87  1024.87     0  03:01        12.7        13.3      -0.003
  
  
  **********************
  Node Surcharge Summary
  **********************
  
  Surcharging occurs when water rises above the top of the highest conduit.
  ---------------------------------------------------------------------
                                               Max. Height   Min. Depth
                                   Hours       Above Crown    Below Rim
  Node                 Type      Surcharged         Meters       Meters
  ---------------------------------------------------------------------
  WS02004401           JUNCTION        0.46          0.236        1.424
  WS02004402           JUNCTION        0.49          0.223        1.517
  WS02004403           JUNCTION        0.50          0.198        1.832
  WS02004404           JUNCTION        0.85          0.246        2.534
  WS02004406           JUNCTION        0.74          0.164        2.286
  WS02004413           JUNCTION        0.18          0.023        2.177
  WS02004405           JUNCTION        0.81          0.220        2.580
  WS02006109           JUNCTION        3.94          0.839        0.981
  WS02006110           JUNCTION        2.08          0.541        1.309
  WS02006111           JUNCTION        0.13          0.075        1.795
  WS02006112           JUNCTION        2.62          0.559        1.121
  WS02006113           JUNCTION        0.15          0.123        1.807
  WS02006115           JUNCTION        0.34          0.207        2.043
  WS02006116           JUNCTION        0.36          0.201        2.089
  WS02006230           JUNCTION        1.72          0.796        0.774
  WS02006231           JUNCTION        2.25          0.812        0.718
  WS02006232           JUNCTION        3.63          0.921        0.559
  WS02006234           JUNCTION        2.85          0.809        0.431
  WS02006235           JUNCTION        3.11          0.831        0.459
  WS02006238           JUNCTION        3.17          0.839        0.591
  WS02006240           JUNCTION        2.68          0.690        0.700
  WS02006242           JUNCTION        2.73          0.699        0.121
  WS02006243           JUNCTION        2.40          0.569        0.201
  WS02006245           JUNCTION        2.25          0.501        0.349
  WS02006247           JUNCTION        2.25          0.488        0.272
  WS02006248           JUNCTION        1.97          0.380        0.000
  WS02006249           JUNCTION        2.03          0.390        0.000
  WS02006239           JUNCTION        2.81          0.748        0.542
  WS02006251           JUNCTION        1.25          0.239        0.941
  WS02006252           JUNCTION        2.37          0.428        0.672
  WS02006253           JUNCTION        1.29          0.295        2.185
  WS02006256           JUNCTION        6.84          2.050        0.000
  WS02006228           JUNCTION        3.91          0.999        1.201
  YS02001748           JUNCTION        5.22          0.309        0.881
  YS02001751           JUNCTION        5.38          0.578        0.622
  YS02001754           JUNCTION        5.58          0.788        0.362
  YS02001762           JUNCTION        5.75          1.055        0.095
  YS02001765           JUNCTION        5.72          1.004        0.096
  YS02001767           JUNCTION        5.69          0.961        0.069
  YS02001770           JUNCTION        5.68          0.917        0.003
  YS02001774           JUNCTION        5.74          0.994        0.056
  YS02001779           JUNCTION        5.56          0.680        0.000
  YS02001882           JUNCTION        1.12          0.634        0.196
  YS02001884           JUNCTION        1.14          0.679        0.191
  YS02001759           JUNCTION        5.78          1.089        0.121
  YS02001887           JUNCTION        1.20          0.767        0.183
  YS02001890           JUNCTION        1.23          0.760        0.000
  YS02001898           JUNCTION        1.09          0.533        0.207
  YS02001901           JUNCTION        1.18          0.677        0.193
  YS02001904           JUNCTION        1.16          0.638        0.212
  YS02001907           JUNCTION        1.89          0.950        0.000
  YS02001910           JUNCTION        1.27          0.790        0.310
  YS02001915           JUNCTION        1.11          0.605        0.395
  YS02001918           JUNCTION        0.93          0.292        0.518
  YS02001619           JUNCTION        5.40          0.489        0.121
  YS02001629           JUNCTION        5.40          0.470        0.000
  YS02001641           JUNCTION        5.73          0.939        0.161
  YS02001644           JUNCTION        5.73          0.920        0.000
  YS02001652           JUNCTION        5.61          1.080        0.050
  YS02001655           JUNCTION        5.41          1.124        0.076
  YS02001920           JUNCTION        0.96          0.374        0.766
  YS02001658           JUNCTION        5.24          1.084        0.216
  YS02001661           JUNCTION        0.17          0.883        0.507
  YS02001622           JUNCTION        5.41          0.506        0.114
  YS02001633           JUNCTION        5.71          0.937        0.123
  YS02001649           JUNCTION        5.75          1.050        0.000
  YS02001757           JUNCTION        5.86          1.175        0.035
  YS02001895           JUNCTION        1.10          0.567        0.183
  YS02001625           JUNCTION        5.64          0.780        0.000
  YS02163301           JUNCTION        5.68          0.893        0.137
  YS02163601           JUNCTION        5.75          1.003        0.077
  YS02164001           JUNCTION        5.72          0.931        0.169
  YS02001647           JUNCTION        5.62          0.800        0.100
  YS02006553           JUNCTION        1.96          0.971        0.219
  YS02006561           JUNCTION        0.99          0.283        0.867
  YS02006556           JUNCTION        1.47          0.894        0.456
  YS02006558           JUNCTION        1.45          0.876        0.524
  YS02001783           JUNCTION        1.33          0.833        0.767
  YS02001784           JUNCTION        1.31          0.675        0.815
  YS02001786           JUNCTION        1.26          0.782        0.648
  YS02001788           JUNCTION        1.20          0.505        0.975
  YS02001790           JUNCTION        1.91          1.157        0.000
  YS02001791           JUNCTION        2.00          0.822        1.098
  YS02001793           JUNCTION        2.26          0.910        1.690
  
  
  *********************
  Node Flooding Summary
  *********************
  
  Flooding refers to all water that overflows a node, whether it ponds or not.
  --------------------------------------------------------------------------
                                                             Total   Maximum
                                 Maximum   Time of Max       Flood    Ponded
                        Hours       Rate    Occurrence      Volume     Depth
  Node                 Flooded       LPS   days hr:min    10^6 ltr    Meters
  --------------------------------------------------------------------------
  WS02006248              0.08     14.58      0  03:03       0.002     0.000
  WS02006249              1.18    258.81      0  03:02       0.361     0.000
  WS02006256              4.08    830.96      0  03:02       6.810     0.000
  YS02001779              2.94    673.92      0  03:01       2.088     0.000
  YS02001890              0.34    164.07      0  03:01       0.085     0.000
  YS02001907              0.81    700.31      0  03:01       1.070     0.000
  YS02001629              0.01      2.02      0  06:51       0.000     0.000
  YS02001644              4.22   1526.22      0  03:01       9.151     0.000
  YS02001649              0.03     36.33      0  02:43       0.001     0.000
  YS02001625              1.41    408.34      0  03:01       0.855     0.000
  YS02001790              0.01    113.71      0  06:41       0.000     0.000
  JK-storage              0.77    780.90      0  02:40       1.048     0.000
  XR-storage              3.52    644.86      0  03:01       2.728     0.000
  
  
  **********************
  Storage Volume Summary
  **********************
  
  --------------------------------------------------------------------------------------------------
                         Average     Avg  Evap Exfil       Maximum     Max    Time of Max    Maximum
                          Volume    Pcnt  Pcnt  Pcnt        Volume    Pcnt     Occurrence    Outflow
  Storage Unit           1000 m3    Full  Loss  Loss       1000 m3    Full    days hr:min        LPS
  --------------------------------------------------------------------------------------------------
  JK-storage               0.135      46     0     0         0.291     100       0  02:31     983.00
  CC-storage               3.241      21     0     0         3.966      25       0  03:13     400.00
  XR-storage               0.817      88     0     0         0.926     100       0  02:55     380.00
  
  
  ***********************
  Outfall Loading Summary
  ***********************
  
  ---------------------------------------------------------------------------------------------------------------------------------
                         Flow       Avg       Max       Total         Total         Total         Total         Total         Total
                         Freq      Flow      Flow      Volume           COD            SS            TN            TP         NH4-N
  Outfall Node           Pcnt       LPS       LPS    10^6 ltr            kg            kg            kg            kg            kg
  ---------------------------------------------------------------------------------------------------------------------------------
  WSC                   99.98    802.03   1331.49      20.009      2385.617      4132.936       148.057        17.327        89.345
  ---------------------------------------------------------------------------------------------------------------------------------
  System                99.98    802.03   1331.49      20.009      2385.617      4132.936       148.057        17.327        89.345
  
  
  ********************
  Link Flow Summary
  ********************
  
  -----------------------------------------------------------------------------
                                 Maximum  Time of Max   Maximum    Max/    Max/
                                  |Flow|   Occurrence   |Veloc|    Full    Full
  Link                 Type          LPS  days hr:min     m/sec    Flow   Depth
  -----------------------------------------------------------------------------
  WS02003066WSF200     CONDUIT    938.81     0  03:04      3.00    0.16    0.32
  WS02006287WS02006284 CONDUIT    678.86     0  03:02      2.38    0.31    0.39
  WS02006284WS02006280 CONDUIT    680.09     0  03:02      2.62    0.28    0.37
  WS02006280WS02006229 CONDUIT    680.14     0  03:02      3.90    0.15    0.50
  WS02006229WS02006228 CONDUIT    913.92     0  03:03      1.82    3.03    1.00
  WS02006256WS02006235 CONDUIT    288.92     0  00:00      4.23    3.06    1.00
  WS02006253WS02006251 CONDUIT    144.37     0  03:01      0.64    0.43    1.00
  WS02006252WS02006251 CONDUIT    404.14     0  07:42      3.22    1.48    1.00
  WS02006251WS02006249 CONDUIT    428.29     0  07:42      1.11    1.23    1.00
  WS02006249WS02006248 CONDUIT    388.23     0  06:51      1.14    2.13    1.00
  WS02006248WS02006247 CONDUIT    383.12     0  06:51      1.11    0.83    1.00
  WS02006247WS02006245 CONDUIT    378.04     0  06:51      1.08    3.00    1.00
  WS02006245WS02006243 CONDUIT    371.66     0  04:51      1.09    1.10    1.00
  WS02006243WS02006242 CONDUIT    367.72     0  04:51      1.00    0.79    1.00
  WS02006242WS02006240 CONDUIT    364.46     0  04:51      0.97    1.45    1.00
  WS02006240WS02006239 CONDUIT    360.71     0  04:52      0.99    1.14    1.00
  WS02006239WS02006238 CONDUIT    359.39     0  04:52      0.95    1.15    1.00
  WS02006238WS02006235 CONDUIT    359.05     0  04:52      1.45    0.80    1.00
  WS02006235WS02006234 CONDUIT    524.57     0  07:43      1.36    5.53    1.00
  WS02006234WS02006232 CONDUIT    525.26     0  07:43      1.39    1.06    1.00
  WS02006232WS02006231 CONDUIT    525.13     0  07:43      1.36    1.10    1.00
  WS02006231WS02006230 CONDUIT    525.05     0  07:42      1.41    7.96    1.00
  WS02006230WS02006229 CONDUIT    535.50     0  07:43      1.39   11.92    1.00
  WS02006228WS02006109 CONDUIT    914.09     0  03:03      1.82    3.99    1.00
  WS02006116WS02004401 CONDUIT    940.13     0  03:02      1.20    1.30    1.00
  WS02006115WS02006116 CONDUIT    939.87     0  03:02      1.20    1.21    1.00
  WS02006113WS02006111 CONDUIT    915.70     0  03:03      2.60    1.10    1.00
  WS02006112WS02006115 CONDUIT    939.50     0  03:02      1.20    0.55    1.00
  WS02006111WS02006112 CONDUIT    915.88     0  03:03      1.82    0.44    1.00
  WS02006110WS02006113 CONDUIT    915.47     0  03:03      1.82    0.83    1.00
  WS02006109WS02006110 CONDUIT    915.44     0  03:03      1.82    1.76    1.00
  WS02004411WS02004412 CONDUIT    937.51     0  03:03      1.24    1.33    0.92
  WS02004401WS02004402 CONDUIT    940.07     0  03:02      1.20    1.13    1.00
  WS02004413WS02003067 CONDUIT    938.10     0  03:04      1.55    0.40    0.72
  WS02004412WS02004413 CONDUIT    937.99     0  03:04      1.22    0.63    0.95
  WS02004410WS02004411 CONDUIT    937.83     0  03:03      1.23    1.28    0.94
  WS02004409WS02004410 CONDUIT    938.50     0  03:03      1.22    1.21    0.95
  WS02004407WS02004409 CONDUIT    939.38     0  03:03      1.68    0.33    0.68
  WS02004406WS02004407 CONDUIT    939.64     0  03:02      1.60    0.42    0.70
  WS02004405WS02004406 CONDUIT    939.97     0  03:02      1.20    1.85    1.00
  WS02004404WS02004405 CONDUIT    941.14     0  03:02      1.20    9.22    1.00
  WS02004403WS02004404 CONDUIT    940.53     0  03:02      1.20    0.68    1.00
  WS02004402WS02004403 CONDUIT    939.71     0  03:02      1.20    1.35    1.00
  WS02004139WS02001211 CONDUIT    382.95     0  03:16      0.90    0.48    0.64
  WS02004138WS02004139 CONDUIT    395.52     0  00:00      3.64    0.08    0.47
  WS02003067WS02003066 CONDUIT    938.63     0  03:04      1.65    0.30    0.50
  WS02001213WS02003059 CONDUIT    398.66     0  03:15      0.89    0.66    0.87
  WS02001212WS02001213 CONDUIT    395.75     0  03:16      1.32    0.61    0.56
  WS02001211WS02001212 CONDUIT    393.23     0  03:16      0.78    0.30    0.71
  WS02003072WS02003073 CONDUIT   1329.38     0  03:06      1.96    2.87    0.58
  WS02003069WS02003072 CONDUIT   1329.14     0  03:05      1.82    0.64    0.62
  WS02003060WS02003069 CONDUIT   1329.12     0  03:05      2.03    0.52    0.56
  WS02003059WS02003060 CONDUIT    402.19     0  03:15      0.95    0.26    0.77
  HS02004901HS02004770 CONDUIT     37.23     0  03:01      0.10    0.14    0.53
  HS02004876HS02004881 CONDUIT    127.63     0  03:01      1.21    1.36    0.15
  HS02004870HS02004876 CONDUIT    103.09     0  03:01      0.82    0.07    0.18
  HS02004842HS02004848 CONDUIT     16.84     0  03:01      0.07    0.01    0.33
  HS02004837HS02004842 CONDUIT     17.91     0  03:03      0.42    0.01    0.35
  HS02004830HS02004837 CONDUIT     64.64     0  03:01      0.67    0.06    0.14
  HS02004824HS02004830 CONDUIT     64.12     0  03:02      0.62    0.08    0.16
  HS02004817HS02004824 CONDUIT    123.87     0  03:01      0.31    0.06    0.58
  HS02004770HS02004777 CONDUIT    184.99     0  03:01      0.49    0.34    0.54
  HS02004799HS02004480 CONDUIT    444.30     0  03:01      1.07    0.56    0.60
  HS02004792HS02004799 CONDUIT    408.43     0  03:01      1.20    0.25    0.49
  HS02004788HS02004792 CONDUIT    232.94     0  03:02      1.28    0.15    0.26
  HS02004785HS02004788 CONDUIT    181.76     0  03:02      0.91    1.37    0.29
  HS02004777HS02004785 CONDUIT    182.05     0  03:01      0.57    0.22    0.45
  HS02004480HS02004478 CONDUIT    517.29     0  03:01      1.55    2.18    0.48
  HS02004479HS02004480 CONDUIT     77.29     0  03:02      0.30    0.07    0.57
  HS02004862HS02004870 CONDUIT     79.02     0  03:01      0.80    0.09    0.14
  HS02004848HS02004852 CONDUIT     37.84     0  03:01      0.53    0.04    0.10
  HS02004856HS02004862 CONDUIT     54.76     0  03:01      0.59    0.05    0.13
  HS02004852HS02004856 CONDUIT     37.75     0  03:02      0.34    0.04    0.16
  HS02004802HS02004478 CONDUIT    170.17     0  03:04      0.54    0.15    0.48
  HS02004478WS02006287 CONDUIT    677.57     0  03:02      2.11    0.19    0.36
  HS02004817HS02004807 CONDUIT    128.12     0  03:04      0.25    0.08    0.75
  HS02004807HS02004802 CONDUIT    165.32     0  03:04      0.46    0.32    0.53
  YS02001759YS02001757 CONDUIT    619.13     0  02:43      0.79    0.44    1.00
  YS02001762YS02001759 CONDUIT    313.29     0  02:42      0.40    0.36    1.00
  YS02001765YS02001762 CONDUIT    312.57     0  02:43      0.40    0.29    1.00
  YS02001770YS02001767 CONDUIT    312.68     0  02:43      0.40    1.24    1.00
  YS02001774YS02001770 CONDUIT    674.29     0  03:01      0.86    0.43    1.00
  YS02001779YS02001774 CONDUIT    674.04     0  03:01      0.86    0.34    1.00
  YS02001649YS02001757 CONDUIT    871.58     0  02:40      1.11    0.53    1.00
  YS02001767YS02001765 CONDUIT    313.18     0  02:43      0.40    0.39    1.00
  YS02006561YS02001783 CONDUIT    983.84     0  03:00      2.15    0.51    1.00
  YS02001783YS02001784 CONDUIT    984.52     0  03:00      1.96    1.36    1.00
  YS02001784YS02001785 CONDUIT    984.97     0  03:00      1.96    2.29    1.00
  YS02001788YS02001790 CONDUIT    985.65     0  03:00      2.44    0.73    1.00
  YS02001790YS02001791 CONDUIT    985.28     0  03:01      2.90    1.07    1.00
  YS02001791YS02001793 CONDUIT    985.96     0  03:00      5.76    0.42    1.00
  YS02001910YS02001907 CONDUIT    579.65     0  03:02      0.74    0.33    1.00
  YS02001786YS02001788 CONDUIT    985.05     0  03:01      2.31    1.90    1.00
  YS02001915YS02001910 CONDUIT    579.62     0  03:02      0.74    0.29    1.00
  YS02001918YS02001915 CONDUIT    247.54     0  03:46      0.44    0.14    1.00
  YS02001923YS02001920 CONDUIT    237.46     0  02:47      0.75    0.11    1.00
  YS02001926YS02001923 CONDUIT    239.95     0  02:47      0.86    0.34    0.93
  YS02001929YS02001926 CONDUIT    210.46     0  02:47      0.92    0.10    0.82
  YS02001920YS02001918 CONDUIT    240.73     0  02:47      0.73    0.23    1.00
  YS02001629YS02163301 CONDUIT    198.07     0  02:39      0.25    0.24    1.00
  YS02001619YS02001622 CONDUIT    381.65     0  03:01      0.59    0.56    1.00
  YS02001622YS02001625 CONDUIT    380.75     0  03:01      0.48    0.20    1.00
  YS02001625YS02001629 CONDUIT    197.24     0  02:39      0.25    0.09    1.00
  YS02163301YS02001633 CONDUIT    198.41     0  02:39      0.25    0.19    1.00
  YS02163601YS02164001 CONDUIT    415.23     0  02:39      0.53    0.37    1.00
  YS02164001YS02001641 CONDUIT    415.79     0  02:39      0.53    0.57    1.00
  YS02001641YS02001644 CONDUIT    416.07     0  02:39      0.53    1.35    1.00
  YS02001647YS02001649 CONDUIT    728.94     0  03:10      0.93    0.38    1.00
  YS02006553YS02006556 CONDUIT    709.46     0  03:46      0.90    0.61    1.00
  YS02006556YS02006558 CONDUIT    709.61     0  03:46      0.90    0.56    1.00
  YSB6556YSB1171       CONDUIT     42.81     0  03:02      0.13    0.04    0.82
  YS02001907YS02006553 CONDUIT    709.37     0  03:46      0.79    0.83    1.00
  YS02006558YS02006561 CONDUIT    984.57     0  03:00      3.48    2.18    1.00
  YS02001633YS02163601 CONDUIT    414.55     0  02:39      0.53    0.44    1.00
  YS02001644YS02001647 CONDUIT    729.00     0  03:10      0.93    0.43    1.00
  YS02001745YS02001748 CONDUIT    443.86     0  03:01      1.46    0.17    0.98
  YS02001748YS02001751 CONDUIT    443.85     0  03:01      1.03    0.22    1.00
  YS02001751YS02001754 CONDUIT    444.15     0  03:01      0.88    0.21    1.00
  YS02001754YS02001757 CONDUIT    444.08     0  03:01      0.57    0.18    1.00
  YS02001882YS02001884 CONDUIT     29.32     0  02:39      0.12    0.03    1.00
  YS02001884YS02001887 CONDUIT     57.67     0  02:33      0.08    0.08    1.00
  YS02001890YS02001895 CONDUIT    517.70     0  03:00      0.66    0.24    1.00
  YS02001895YS02001898 CONDUIT    517.97     0  03:01      0.66    0.90    1.00
  YS02001898YS02001901 CONDUIT    517.78     0  03:05      0.66    0.33    1.00
  YS02001901YS02001904 CONDUIT    517.78     0  03:00      0.66    0.80    1.00
  YS02001904YS02001907 CONDUIT    517.92     0  03:00      0.66    0.18    1.00
  YS02001887YS02001890 CONDUIT    680.53     0  03:01      0.87    1.16    1.00
  YS02001652YS02001649 CONDUIT    501.86     0  03:01      0.64    0.25    1.00
  YS02001655YS02001652 CONDUIT    501.38     0  03:01      0.94    0.24    1.00
  YS02001658YS02001655 CONDUIT    501.75     0  03:01      1.18    0.21    1.00
  YS02001661YS02001658 CONDUIT    501.67     0  03:01      1.52    0.20    1.00
  YS02001664YS02001661 CONDUIT    647.90     0  02:45      1.43    0.20    0.77
  YSB1154YSB6556       CONDUIT     43.28     0  03:01      0.18    0.08    0.73
  YSB1174YSB1171       CONDUIT     36.65     0  03:01      0.11    0.06    0.85
  YSB1171HS02004479    CONDUIT     75.44     0  03:02      0.54    0.05    0.68
  HS02004881HS02006253 CONDUIT    140.47     0  03:01      2.33    0.03    0.54
  YS02001793JiankangQianchi CONDUIT    985.62     0  03:00     16.60    0.08    1.00
  YS02001757CaochengTiaoxuchi CONDUIT   1678.61     0  02:40      2.17    0.74    1.00
  WSF200WS02003060     CONDUIT    939.20     0  03:04      1.93    0.21    0.45
  1                    CONDUIT   1331.49     0  03:07      3.59    0.46    0.48
  CC-Pump-1            PUMP       200.00     0  03:00              1.00
  CC-Pump-2            PUMP       200.00     0  04:00              1.00
  JK-Pump-1            PUMP       300.00     0  00:00              1.00
  JK-Pump-2            PUMP       683.00     0  02:50              1.00
  XR-Pump-1            PUMP        95.00     0  00:00              1.00
  XR-Pump-2            PUMP        95.00     0  00:00              1.00
  XR-Pump-3            PUMP        95.00     0  00:00              1.00
  XR-Pump-4            PUMP        95.00     0  00:00              1.00
  
  
  ***************************
  Flow Classification Summary
  ***************************
  
  -------------------------------------------------------------------------------------
                      Adjusted    ---------- Fraction of Time in Flow Class ---------- 
                       /Actual         Up    Down  Sub   Sup   Up    Down  Norm  Inlet 
  Conduit               Length    Dry  Dry   Dry   Crit  Crit  Crit  Crit  Ltd   Ctrl  
  -------------------------------------------------------------------------------------
  WS02003066WSF200        1.00   0.01  0.02  0.00  0.00  0.97  0.00  0.00  0.55  0.00
  WS02006287WS02006284    1.00   0.03  0.01  0.00  0.64  0.32  0.00  0.00  0.65  0.00
  WS02006284WS02006280    1.00   0.04  0.00  0.00  0.00  0.00  0.00  0.96  0.00  0.00
  WS02006280WS02006229    1.00   0.04  0.00  0.00  0.01  0.02  0.00  0.93  0.01  0.00
  WS02006229WS02006228    1.00   0.00  0.00  0.00  1.00  0.00  0.00  0.00  0.00  0.00
  WS02006256WS02006235    1.00   0.00  0.00  0.00  1.00  0.00  0.00  0.00  0.00  0.00
  WS02006253WS02006251    1.00   0.02  0.02  0.00  0.96  0.00  0.01  0.00  0.00  0.00
  WS02006252WS02006251    1.00   0.17  0.00  0.00  0.15  0.00  0.68  0.00  0.00  0.00
  WS02006251WS02006249    1.00   0.00  0.00  0.00  1.00  0.00  0.00  0.00  0.24  0.00
  WS02006249WS02006248    1.00   0.00  0.01  0.00  0.90  0.00  0.09  0.00  0.00  0.00
  WS02006248WS02006247    1.00   0.01  0.00  0.00  0.99  0.00  0.00  0.00  0.16  0.00
  WS02006247WS02006245    1.00   0.00  0.00  0.00  0.99  0.00  0.00  0.01  0.00  0.00
  WS02006245WS02006243    1.00   0.00  0.00  0.00  0.96  0.00  0.00  0.04  0.00  0.00
  WS02006243WS02006242    1.00   0.00  0.00  0.00  1.00  0.00  0.00  0.00  0.23  0.00
  WS02006242WS02006240    1.00   0.00  0.00  0.00  1.00  0.00  0.00  0.00  0.00  0.00
  WS02006240WS02006239    1.00   0.00  0.00  0.00  0.94  0.00  0.00  0.05  0.01  0.00
  WS02006239WS02006238    1.00   0.00  0.00  0.00  1.00  0.00  0.00  0.00  0.13  0.00
  WS02006238WS02006235    1.00   0.00  0.00  0.00  1.00  0.00  0.00  0.00  0.00  0.00
  WS02006235WS02006234    1.00   0.00  0.00  0.00  0.96  0.00  0.04  0.00  0.00  0.00
  WS02006234WS02006232    1.00   0.00  0.00  0.00  1.00  0.00  0.00  0.00  0.09  0.00
  WS02006232WS02006231    1.00   0.00  0.00  0.00  1.00  0.00  0.00  0.00  0.00  0.00
  WS02006231WS02006230    1.00   0.00  0.00  0.00  0.79  0.00  0.21  0.00  0.00  0.00
  WS02006230WS02006229    1.00   0.00  0.00  0.00  1.00  0.00  0.00  0.00  0.00  0.00
  WS02006228WS02006109    1.00   0.00  0.00  0.00  1.00  0.00  0.00  0.00  0.00  0.00
  WS02006116WS02004401    1.00   0.01  0.00  0.00  0.99  0.00  0.00  0.00  0.00  0.00
  WS02006115WS02006116    1.00   0.01  0.00  0.00  0.99  0.00  0.00  0.00  0.00  0.00
  WS02006113WS02006111    1.00   0.01  0.00  0.00  0.04  0.96  0.00  0.00  0.15  0.00
  WS02006112WS02006115    1.00   0.01  0.00  0.00  0.99  0.00  0.00  0.00  0.00  0.00
  WS02006111WS02006112    1.00   0.01  0.00  0.00  0.99  0.00  0.00  0.00  0.88  0.00
  WS02006110WS02006113    1.00   0.00  0.00  0.00  0.99  0.00  0.00  0.00  0.00  0.00
  WS02006109WS02006110    1.00   0.00  0.00  0.00  0.99  0.00  0.00  0.00  0.00  0.00
  WS02004411WS02004412    1.00   0.02  0.00  0.00  0.98  0.00  0.00  0.00  0.00  0.00
  WS02004401WS02004402    1.00   0.01  0.00  0.00  0.99  0.00  0.00  0.00  0.00  0.00
  WS02004413WS02003067    1.00   0.02  0.01  0.00  0.00  0.00  0.98  0.00  0.00  0.00
  WS02004412WS02004413    1.00   0.02  0.00  0.00  0.98  0.00  0.00  0.00  0.01  0.00
  WS02004410WS02004411    1.00   0.02  0.00  0.00  0.98  0.00  0.00  0.00  0.00  0.00
  WS02004409WS02004410    1.00   0.02  0.00  0.00  0.98  0.00  0.00  0.00  0.02  0.00
  WS02004407WS02004409    1.00   0.02  0.00  0.00  0.98  0.00  0.00  0.00  0.95  0.00
  WS02004406WS02004407    1.00   0.00  0.01  0.00  0.98  0.00  0.00  0.00  0.00  0.00
  WS02004405WS02004406    1.00   0.00  0.00  0.00  1.00  0.00  0.00  0.00  0.00  0.00
  WS02004404WS02004405    1.00   0.00  0.00  0.00  1.00  0.00  0.00  0.00  0.00  0.00
  WS02004403WS02004404    1.00   0.00  0.01  0.00  0.99  0.00  0.00  0.00  0.00  0.00
  WS02004402WS02004403    1.00   0.01  0.00  0.00  0.99  0.00  0.00  0.00  0.00  0.00
  WS02004139WS02001211    1.00   0.00  0.00  0.00  1.00  0.00  0.00  0.00  0.00  0.00
  WS02004138WS02004139    1.00   0.00  0.00  0.00  1.00  0.00  0.00  0.00  1.00  0.00
  WS02003067WS02003066    1.00   0.02  0.00  0.00  0.97  0.00  0.00  0.00  0.00  0.00
  WS02001213WS02003059    1.00   0.00  0.00  0.00  1.00  0.00  0.00  0.00  0.00  0.00
  WS02001212WS02001213    1.00   0.00  0.00  0.00  0.91  0.00  0.09  0.00  0.00  0.00
  WS02001211WS02001212    1.00   0.00  0.00  0.00  1.00  0.00  0.00  0.00  0.00  0.00
  WS02003072WS02003073    1.00   0.00  0.00  0.00  0.00  0.00  0.00  1.00  0.00  0.00
  WS02003069WS02003072    1.00   0.00  0.00  0.00  1.00  0.00  0.00  0.00  0.15  0.00
  WS02003060WS02003069    1.00   0.00  0.00  0.00  0.99  0.01  0.00  0.00  0.12  0.00
  WS02003059WS02003060    1.00   0.00  0.00  0.00  1.00  0.00  0.00  0.00  0.01  0.00
  HS02004901HS02004770    1.00   0.04  0.00  0.00  0.96  0.00  0.00  0.00  0.00  0.00
  HS02004876HS02004881    1.00   0.01  0.00  0.00  0.92  0.07  0.00  0.00  0.00  0.00
  HS02004870HS02004876    1.00   0.00  0.00  0.00  0.99  0.00  0.00  0.00  0.95  0.00
  HS02004842HS02004848    1.00   0.00  0.04  0.00  0.96  0.00  0.00  0.00  0.54  0.00
  HS02004837HS02004842    1.00   0.00  0.00  0.00  1.00  0.00  0.00  0.00  0.11  0.00
  HS02004830HS02004837    1.00   0.00  0.00  0.00  1.00  0.00  0.00  0.00  0.99  0.00
  HS02004824HS02004830    1.00   0.00  0.00  0.00  1.00  0.00  0.00  0.00  0.01  0.00
  HS02004817HS02004824    1.00   0.00  0.00  0.00  1.00  0.00  0.00  0.00  0.97  0.00
  HS02004770HS02004777    1.00   0.00  0.04  0.00  0.96  0.00  0.00  0.00  0.03  0.00
  HS02004799HS02004480    1.00   0.00  0.01  0.00  0.96  0.00  0.03  0.00  0.00  0.00
  HS02004792HS02004799    1.00   0.00  0.00  0.00  1.00  0.00  0.00  0.00  0.98  0.00
  HS02004788HS02004792    1.00   0.00  0.00  0.00  1.00  0.00  0.00  0.00  0.98  0.00
  HS02004785HS02004788    1.00   0.00  0.00  0.00  1.00  0.00  0.00  0.00  0.00  0.00
  HS02004777HS02004785    1.00   0.00  0.00  0.00  1.00  0.00  0.00  0.00  0.12  0.00
  HS02004480HS02004478    1.00   0.04  0.00  0.00  0.72  0.00  0.00  0.25  0.00  0.00
  HS02004479HS02004480    1.00   0.01  0.00  0.00  0.99  0.00  0.00  0.00  0.12  0.00
  HS02004862HS02004870    1.00   0.00  0.00  0.00  1.00  0.00  0.00  0.00  0.04  0.00
  HS02004848HS02004852    1.00   0.04  0.00  0.00  0.96  0.00  0.00  0.00  0.64  0.00
  HS02004856HS02004862    1.00   0.00  0.05  0.00  0.95  0.00  0.00  0.00  0.83  0.00
  HS02004852HS02004856    1.00   0.04  0.00  0.00  0.96  0.00  0.00  0.00  0.81  0.00
  HS02004802HS02004478    1.00   0.04  0.00  0.00  0.96  0.00  0.00  0.00  0.02  0.00
  HS02004478WS02006287    1.00   0.04  0.00  0.00  0.77  0.18  0.00  0.00  0.65  0.00
  HS02004817HS02004807    1.00   0.00  0.04  0.00  0.96  0.00  0.00  0.00  0.01  0.00
  HS02004807HS02004802    1.00   0.04  0.00  0.00  0.96  0.00  0.00  0.00  0.00  0.00
  YS02001759YS02001757    1.00   0.00  0.00  0.00  1.00  0.00  0.00  0.00  0.16  0.00
  YS02001762YS02001759    1.00   0.00  0.00  0.00  1.00  0.00  0.00  0.00  0.03  0.00
  YS02001765YS02001762    1.00   0.00  0.00  0.00  1.00  0.00  0.00  0.00  0.14  0.00
  YS02001770YS02001767    1.00   0.00  0.00  0.00  1.00  0.00  0.00  0.00  0.00  0.00
  YS02001774YS02001770    1.00   0.00  0.04  0.00  0.96  0.00  0.00  0.00  0.03  0.00
  YS02001779YS02001774    1.00   0.00  0.00  0.00  1.00  0.00  0.00  0.00  0.19  0.00
  YS02001649YS02001757    1.00   0.00  0.00  0.00  1.00  0.00  0.00  0.00  0.16  0.00
  YS02001767YS02001765    1.00   0.00  0.00  0.00  1.00  0.00  0.00  0.00  0.00  0.00
  YS02006561YS02001783    1.00   0.05  0.00  0.00  0.34  0.61  0.00  0.00  0.45  0.00
  YS02001783YS02001784    1.00   0.00  0.05  0.00  0.95  0.00  0.00  0.00  0.00  0.00
  YS02001784YS02001785    1.00   0.00  0.00  0.00  1.00  0.00  0.00  0.00  0.18  0.00
  YS02001788YS02001790    1.00   0.00  0.00  0.00  0.40  0.60  0.00  0.00  0.38  0.00
  YS02001790YS02001791    1.00   0.00  0.00  0.00  0.36  0.64  0.00  0.00  0.48  0.00
  YS02001791YS02001793    1.00   0.00  0.00  0.00  0.39  0.61  0.00  0.00  0.02  0.00
  YS02001910YS02001907    1.00   0.00  0.00  0.00  0.99  0.00  0.00  0.01  0.12  0.00
  YS02001786YS02001788    1.00   0.00  0.00  0.00  0.38  0.62  0.00  0.00  0.00  0.00
  YS02001915YS02001910    1.00   0.00  0.00  0.00  0.99  0.01  0.00  0.00  0.16  0.00
  YS02001918YS02001915    1.00   0.00  0.00  0.00  0.99  0.01  0.00  0.00  0.54  0.00
  YS02001923YS02001920    1.00   0.00  0.00  0.00  1.00  0.00  0.00  0.00  0.82  0.00
  YS02001926YS02001923    1.00   0.00  0.02  0.00  0.15  0.00  0.82  0.00  0.00  0.00
  YS02001929YS02001926    1.00   0.00  0.04  0.00  0.96  0.00  0.00  0.00  0.74  0.00
  YS02001920YS02001918    1.00   0.00  0.00  0.00  1.00  0.00  0.00  0.00  0.00  0.00
  YS02001629YS02163301    1.00   0.04  0.00  0.00  0.96  0.00  0.00  0.00  0.00  0.00
  YS02001619YS02001622    1.00   0.04  0.00  0.00  0.96  0.00  0.00  0.00  0.00  0.00
  YS02001622YS02001625    1.00   0.04  0.00  0.00  0.96  0.00  0.00  0.00  0.05  0.00
  YS02001625YS02001629    1.00   0.04  0.02  0.00  0.93  0.00  0.02  0.00  0.00  0.00
  YS02163301YS02001633    1.00   0.00  0.04  0.00  0.96  0.00  0.00  0.00  0.00  0.00
  YS02163601YS02164001    1.00   0.00  0.02  0.00  0.98  0.00  0.00  0.00  0.00  0.00
  YS02164001YS02001641    1.00   0.00  0.02  0.00  0.98  0.00  0.00  0.00  0.06  0.00
  YS02001641YS02001644    1.00   0.00  0.00  0.00  1.00  0.00  0.00  0.00  0.00  0.00
  YS02001647YS02001649    1.00   0.00  0.05  0.00  0.95  0.00  0.00  0.00  0.01  0.00
  YS02006553YS02006556    1.00   0.01  0.00  0.00  0.99  0.00  0.00  0.00  0.03  0.00
  YS02006556YS02006558    1.00   0.00  0.00  0.00  1.00  0.00  0.00  0.00  0.00  0.00
  YSB6556YSB1171          1.00   0.02  0.02  0.00  0.96  0.00  0.00  0.00  0.00  0.00
  YS02001907YS02006553    1.00   0.00  0.01  0.00  0.99  0.00  0.00  0.00  0.00  0.00
  YS02006558YS02006561    1.00   0.05  0.00  0.00  0.16  0.79  0.00  0.00  0.45  0.00
  YS02001633YS02163601    1.00   0.00  0.00  0.00  1.00  0.00  0.00  0.00  0.15  0.00
  YS02001644YS02001647    1.00   0.00  0.05  0.00  0.95  0.00  0.00  0.00  0.00  0.00
  YS02001745YS02001748    1.00   0.00  0.00  0.00  0.91  0.00  0.00  0.09  0.04  0.00
  YS02001748YS02001751    1.00   0.00  0.00  0.00  0.97  0.03  0.00  0.00  0.15  0.00
  YS02001751YS02001754    1.00   0.00  0.00  0.00  0.94  0.00  0.00  0.06  0.02  0.00
  YS02001754YS02001757    1.00   0.00  0.00  0.00  1.00  0.00  0.00  0.00  0.18  0.00
  YS02001882YS02001884    1.00   0.04  0.00  0.00  0.96  0.00  0.00  0.00  0.00  0.00
  YS02001884YS02001887    1.00   0.02  0.01  0.00  0.97  0.00  0.00  0.00  0.00  0.00
  YS02001890YS02001895    1.00   0.00  0.04  0.00  0.96  0.00  0.00  0.00  0.00  0.00
  YS02001895YS02001898    1.00   0.04  0.00  0.00  0.95  0.00  0.01  0.00  0.00  0.00
  YS02001898YS02001901    1.00   0.04  0.00  0.00  0.96  0.00  0.00  0.00  0.01  0.00
  YS02001901YS02001904    1.00   0.04  0.00  0.00  0.96  0.00  0.00  0.00  0.00  0.00
  YS02001904YS02001907    1.00   0.00  0.04  0.00  0.96  0.00  0.00  0.00  0.00  0.00
  YS02001887YS02001890    1.00   0.00  0.00  0.00  0.99  0.00  0.01  0.00  0.00  0.00
  YS02001652YS02001649    1.00   0.00  0.00  0.00  1.00  0.00  0.00  0.00  0.17  0.00
  YS02001655YS02001652    1.00   0.00  0.00  0.00  0.94  0.00  0.00  0.06  0.02  0.00
  YS02001658YS02001655    1.00   0.00  0.04  0.00  0.93  0.03  0.00  0.00  0.10  0.00
  YS02001661YS02001658    1.00   0.04  0.00  0.00  0.91  0.05  0.00  0.00  0.11  0.00
  YS02001664YS02001661    1.00   0.04  0.00  0.00  0.92  0.04  0.00  0.00  0.20  0.00
  YSB1154YSB6556          1.00   0.04  0.00  0.00  0.96  0.00  0.00  0.00  0.02  0.00
  YSB1174YSB1171          1.00   0.02  0.01  0.00  0.97  0.00  0.00  0.00  0.00  0.00
  YSB1171HS02004479       1.00   0.01  0.00  0.00  0.98  0.00  0.00  0.00  0.10  0.00
  HS02004881HS02006253    1.00   0.02  0.00  0.00  0.73  0.01  0.00  0.24  0.54  0.00
  YS02001793JiankangQianchi    1.00   0.00  0.00  0.00  0.61  0.38  0.00  0.00  0.39  0.00
  YS02001757CaochengTiaoxuchi    1.00   0.00  0.07  0.00  0.93  0.00  0.00  0.00  0.00  0.00
  WSF200WS02003060        1.00   0.00  0.01  0.00  0.98  0.02  0.00  0.00  0.37  0.00
  1                       1.00   0.00  0.00  0.00  0.00  1.00  0.00  0.00  0.54  0.00
  
  
  *************************
  Conduit Surcharge Summary
  *************************
  
  ----------------------------------------------------------------------------
                                                           Hours        Hours 
                         --------- Hours Full --------   Above Full   Capacity
  Conduit                Both Ends  Upstream  Dnstream   Normal Flow   Limited
  ----------------------------------------------------------------------------
  WS02006229WS02006228        3.91      3.99      3.91      5.05         3.91
  WS02006256WS02006235        5.87      5.88      6.84      4.61         0.01
  WS02006253WS02006251        1.92      1.93      1.98      0.01         0.03
  WS02006252WS02006251        1.56      1.56      2.37      1.72         0.01
  WS02006251WS02006249        1.94      1.94      2.03      0.94         0.74
  WS02006249WS02006248        1.97      1.97      2.03      3.51         0.01
  WS02006248WS02006247        2.03      2.03      2.25      0.01         0.01
  WS02006247WS02006245        2.25      2.31      2.25      4.00         2.14
  WS02006245WS02006243        2.31      2.31      2.40      0.15         0.13
  WS02006243WS02006242        2.43      2.43      2.73      0.01         0.01
  WS02006242WS02006240        2.68      2.68      2.95      2.10         0.01
  WS02006240WS02006239        2.71      2.71      2.81      0.93         0.57
  WS02006239WS02006238        3.02      3.03      3.17      1.00         0.68
  WS02006238WS02006235        3.15      3.15      3.31      0.01         0.01
  WS02006235WS02006234        2.85      2.85      3.11      5.73         0.01
  WS02006234WS02006232        2.99      2.99      3.63      1.00         1.01
  WS02006232WS02006231        2.25      2.25      3.63      1.33         0.01
  WS02006231WS02006230        1.72      1.72      2.37      5.91         0.01
  WS02006230WS02006229        4.65      4.97      4.65      6.09         4.65
  WS02006228WS02006109        3.94      4.33      3.94      5.36         3.94
[...]
  YS02001770YS02001767        5.69      5.69      5.69      0.20         0.75
  YS02001774YS02001770        5.68      5.68      5.74      0.01         0.01
  YS02001779YS02001774        5.56      5.56      5.74      0.01         0.01
  YS02001649YS02001757        5.75      5.75      5.86      0.01         0.01
  YS02001767YS02001765        5.69      5.69      5.72      0.01         0.01
  YS02006561YS02001783        0.99      0.99      1.33      0.01         0.01
  YS02001783YS02001784        1.31      1.33      1.31      1.49         1.25
  YS02001784YS02001785        1.26      1.31      1.26      2.51         1.25
  YS02001788YS02001790        1.20      1.20      1.91      0.01         0.01
  YS02001790YS02001791        1.91      1.91      2.00      1.10         1.08
  YS02001791YS02001793        2.00      2.00      2.34      0.01         0.01
  YS02001910YS02001907        1.27      1.27      1.89      0.01         0.01
  YS02001786YS02001788        1.20      1.26      1.20      2.08         1.20
  YS02001915YS02001910        1.11      1.11      1.27      0.01         0.01
  YS02001918YS02001915        0.93      0.93      1.11      0.01         0.01
  YS02001923YS02001920        0.78      0.78      0.96      0.01         0.01
  YS02001920YS02001918        0.93      0.93      0.96      0.01         0.01
  YS02001629YS02163301        5.67      5.67      5.68      0.01         0.01
  YS02001619YS02001622        5.40      5.40      5.41      0.01         0.01
  YS02001622YS02001625        5.41      5.41      5.64      0.01         0.01
  YS02001625YS02001629        5.40      5.40      5.64      0.01         0.01
  YS02163301YS02001633        5.68      5.68      5.72      0.01         0.01
  YS02163601YS02164001        5.72      5.72      5.75      0.01         0.01
  YS02164001YS02001641        5.72      5.72      5.73      0.01         0.01
  YS02001641YS02001644        5.73      5.73      5.73      1.72         1.90
  YS02001647YS02001649        5.62      5.62      5.75      0.01         0.01
  YS02006553YS02006556        1.47      1.47      1.96      0.01         0.01
  YS02006556YS02006558        1.67      1.67      2.03      0.01         0.01
  YSB6556YSB1171              0.01      0.01      0.07      0.01         0.01
  YS02001907YS02006553        2.53      2.53      2.75      0.01         0.01
  YS02006558YS02006561        1.11      1.45      1.11      2.36         1.11
  YS02001633YS02163601        5.71      5.71      5.75      0.01         0.01
  YS02001644YS02001647        5.62      5.62      5.73      0.01         0.01
  YS02001745YS02001748        0.01      0.01      5.22      0.01         0.01
  YS02001748YS02001751        5.26      5.26      5.38      0.01         0.01
  YS02001751YS02001754        5.38      5.38      5.58      0.01         0.01
  YS02001754YS02001757        5.61      5.61      5.86      0.01         0.01
  YS02001882YS02001884        1.12      1.12      1.14      0.01         0.01
  YS02001884YS02001887        1.18      1.18      1.20      0.01         0.01
  YS02001890YS02001895        1.10      1.10      1.29      0.01         0.01
  YS02001895YS02001898        1.09      1.09      1.10      0.01         0.01
  YS02001898YS02001901        1.10      1.10      1.18      0.01         0.01
  YS02001901YS02001904        1.16      1.16      1.18      0.01         0.01
  YS02001904YS02001907        1.16      1.16      1.98      0.01         0.01
  YS02001887YS02001890        1.23      1.23      1.26      0.16         0.01
  YS02001652YS02001649        5.63      5.63      5.75      0.01         0.01
  YS02001655YS02001652        5.41      5.41      5.61      0.01         0.01
  YS02001658YS02001655        5.24      5.24      5.41      0.01         0.01
  YS02001661YS02001658        0.15      0.15      5.24      0.01         0.01
  YS02001664YS02001661        0.01      0.01      1.38      0.01         0.01
  HS02004881HS02006253        0.01      0.01      1.29      0.01         0.01
  YS02001793JiankangQianchi        2.26      2.26      3.88      0.01         0.01
  YS02001757CaochengTiaoxuchi        5.11      5.11      5.86      0.01         0.01
  
  
  ***************
  Pumping Summary
  ***************
  
  ---------------------------------------------------------------------------------------------------------
                                                  Min       Avg       Max     Total     Power    % Time Off
                        Percent   Number of      Flow      Flow      Flow    Volume     Usage    Pump Curve
  Pump                 Utilized   Start-Ups       LPS       LPS       LPS  10^6 ltr     Kw-hr    Low   High
  ---------------------------------------------------------------------------------------------------------
  CC-Pump-1               61.70           3      0.00    172.27    200.00     2.940      2.88    0.0    0.0
  CC-Pump-2               34.04           5      0.00     96.73    200.00     1.140      1.47    0.0    0.0
  JK-Pump-1               63.82           5      0.00    226.51    300.00     4.004     63.83    0.0    0.0
  JK-Pump-2               53.18           4      0.00    414.09    683.00     6.335     87.48    0.0   96.7
  XR-Pump-1              100.00           1      0.00     93.87     95.00     2.622     25.81    0.0    0.0
  XR-Pump-2              100.00           1      0.00     93.87     95.00     2.622     25.81    0.0    0.0
  XR-Pump-3               89.36           3      0.00     93.19     95.00     2.280     18.29    0.0    0.0
  XR-Pump-4               89.36           3      0.00     93.19     95.00     2.280     18.29    0.0    0.0
  
  
  ***************************
  Link Pollutant Load Summary
  ***************************
  
  ------------------------------------------------------------------------------------------
                                 COD            SS            TN            TP         NH4-N
  Link                            kg            kg            kg            kg            kg
  ------------------------------------------------------------------------------------------
  WS02003066WSF200           875.720      1636.914        22.681         1.970        11.908
  WS02006287WS02006284       319.500       608.160        10.315         1.015         5.679
  WS02006284WS02006280       319.985       608.957        10.361         1.021         5.708
  WS02006280WS02006229       319.926       608.838        10.359         1.021         5.707
  WS02006229WS02006228       873.244      1632.335        22.131         1.892        11.551
  WS02006256WS02006235       195.809       361.363         4.420         0.350         2.251
  WS02006253WS02006251        61.744       121.344         1.358         0.101         0.673
  WS02006252WS02006251       354.278       649.852         7.183         0.503         3.499
  WS02006251WS02006249       406.532       753.995         8.363         0.593         4.088
  WS02006249WS02006248       369.835       684.335         7.623         0.541         3.728
  WS02006248WS02006247       369.022       682.877         7.606         0.540         3.720
  WS02006247WS02006245       368.134       681.273         7.587         0.538         3.711
  WS02006245WS02006243       367.017       679.338         7.560         0.536         3.697
  WS02006243WS02006242       366.397       678.252         7.548         0.536         3.691
  WS02006242WS02006240       365.799       677.282         7.534         0.535         3.685
  WS02006240WS02006239       366.430       678.563         7.549         0.536         3.692
  WS02006239WS02006238       367.657       680.640         7.596         0.541         3.719
  WS02006238WS02006235       368.019       681.109         7.615         0.543         3.731
  WS02006235WS02006234       557.221      1030.431        11.866         0.879         5.893
  WS02006234WS02006232       556.661      1029.407        11.860         0.879         5.890
  WS02006232WS02006231       555.993      1028.221        11.844         0.878         5.882
  WS02006231WS02006230       555.235      1026.847        11.830         0.877         5.876
  WS02006230WS02006229       554.202      1025.045        11.800         0.874         5.860
  WS02006228WS02006109       872.422      1630.873        22.112         1.891        11.541
  WS02006116WS02004401       885.779      1654.984        22.946         1.992        12.047
  WS02006115WS02006116       887.025      1657.191        22.981         1.995        12.065
  WS02006113WS02006111       878.048      1639.374        22.845         1.985        12.007
  WS02006112WS02006115       888.427      1659.657        23.027         2.000        12.091
  WS02006111WS02006112       877.497      1638.404        22.831         1.984        11.999
  WS02006110WS02006113       878.832      1640.762        22.871         1.988        12.021
  WS02006109WS02006110       880.039      1642.892        22.913         1.992        12.045
  WS02004411WS02004412       878.924      1642.579        22.804         1.982        11.978
  WS02004401WS02004402       884.554      1652.819        22.906         1.988        12.025
  WS02004413WS02003067       876.231      1637.867        22.694         1.971        11.915
  WS02004412WS02004413       877.887      1640.751        22.766         1.979        11.957
  WS02004410WS02004411       879.756      1644.061        22.834         1.985        11.994
  WS02004409WS02004410       880.671      1645.678        22.868         1.989        12.014
  WS02004407WS02004409       881.330      1646.852        22.889         1.991        12.025
  WS02004406WS02004407       881.444      1647.075        22.887         1.990        12.024
  WS02004405WS02004406       882.702      1649.289        22.940         1.996        12.054
  WS02004404WS02004405       883.167      1650.167        22.932         1.994        12.047
  WS02004403WS02004404       882.624      1649.403        22.843         1.982        11.990
  WS02004402WS02004403       883.556      1651.053        22.875         1.985        12.008
  WS02004139WS02001211      1370.010      2275.137       111.141        13.566        68.505
  WS02004138WS02004139      1376.318      2285.675       111.628        13.625        68.804
  WS02003067WS02003066       875.952      1637.333        22.689         1.971        11.912
  WS02001213WS02003059      1402.968      2326.891       114.566        13.998        70.658
  WS02001212WS02001213      1412.437      2342.573       115.335        14.092        71.132
  WS02001211WS02001212      1414.358      2345.721       115.498        14.112        71.233
  WS02003072WS02003073      2379.177      4123.362       147.262        17.225        88.841
  WS02003069WS02003072      2384.288      4131.783       147.663        17.274        89.088
  WS02003060WS02003069      2386.738      4136.039       147.796        17.289        89.167
  WS02003059WS02003060      1399.716      2321.385       114.335        13.970        70.517
  HS02004901HS02004770        13.094        25.475         0.248         0.019         0.116
  HS02004876HS02004881        45.517        90.351         0.999         0.073         0.491
  HS02004870HS02004876        34.383        68.108         0.798         0.060         0.395
  HS02004842HS02004848         6.456        12.343         0.134         0.009         0.062
  HS02004837HS02004842        11.056        19.635         0.603         0.068         0.356
  HS02004830HS02004837        70.299       122.728         4.644         0.552         2.827
  HS02004824HS02004830        71.071       123.985         4.715         0.561         2.871
  HS02004817HS02004824        97.166       176.411         5.254         0.596         3.135
  HS02004770HS02004777        49.663        97.715         1.021         0.069         0.472
  HS02004799HS02004480       162.330       310.851         4.263         0.379         2.209
  HS02004792HS02004799       147.277       280.132         4.028         0.367         2.105
  HS02004788HS02004792        82.818       157.691         2.666         0.255         1.440
  HS02004785HS02004788        51.122       100.052         1.172         0.089         0.567
  HS02004777HS02004785        50.447        98.945         1.112         0.081         0.530
  HS02004480HS02004478       204.829       395.205         4.972         0.429         2.543
  HS02004479HS02004480        46.129        90.115         1.037         0.091         0.538
  HS02004862HS02004870        25.800        50.341         0.628         0.050         0.314
  HS02004848HS02004852        10.252        19.885         0.210         0.014         0.097
  HS02004856HS02004862        17.525        34.750         0.350         0.023         0.164
  HS02004852HS02004856        10.255        19.890         0.210         0.014         0.097
  HS02004802HS02004478       115.344       214.056         5.398         0.592         3.169
  HS02004478WS02006287       319.709       608.521        10.332         1.017         5.690
  HS02004817HS02004807        95.860       174.317         5.130         0.581         3.057
  HS02004807HS02004802       115.600       214.457         5.430         0.596         3.190
  YS02001759YS02001757       370.458       680.366         7.396         0.513         3.612
  YS02001762YS02001759       177.841       327.081         3.762         0.264         1.860
  YS02001765YS02001762       178.299       328.476         3.790         0.267         1.876
  YS02001770YS02001767       178.505       330.479         3.606         0.239         1.752
  YS02001774YS02001770       244.935       479.426         4.683         0.311         2.262
  YS02001779YS02001774       243.780       477.098         4.757         0.324         2.315
  YS02001649YS02001757       322.105       580.922         6.474         0.448         3.111
  YS02001767YS02001765       179.156       330.553         3.819         0.269         1.892
  YS02006561YS02001783      1017.955      1886.560        21.367         1.596        10.637
  YS02001783YS02001784      1017.853      1886.405        21.364         1.596        10.635
  YS02001784YS02001785      1025.175      1898.136        22.076         1.685        11.081
  YS02001788YS02001790      1025.775      1899.101        22.153         1.695        11.129
  YS02001790YS02001791      1026.860      1900.843        22.267         1.710        11.201
  YS02001791YS02001793      1026.866      1900.851        22.265         1.709        11.200
  YS02001910YS02001907       391.403       721.867         9.424         0.723         4.833
  YS02001786YS02001788      1025.331      1898.385        22.103         1.689        11.098
  YS02001915YS02001910       391.490       722.013         9.377         0.716         4.801
  YS02001918YS02001915       189.777       335.125         5.237         0.476         2.821
  YS02001923YS02001920       167.174       297.784         3.253         0.232         1.588
  YS02001926YS02001923       164.848       293.840         3.121         0.217         1.509
  YS02001929YS02001926       164.187       292.735         3.065         0.210         1.474
  YS02001920YS02001918       187.516       330.522         5.170         0.471         2.785
  YS02001629YS02163301        96.093       169.915         2.028         0.131         0.946
  YS02001619YS02001622       175.873       321.133         3.601         0.236         1.684
  YS02001622YS02001625       174.683       319.240         3.573         0.234         1.671
  YS02001625YS02001629        97.182       171.698         2.053         0.132         0.957
  YS02163301YS02001633        96.456       170.785         2.031         0.132         0.948
  YS02163601YS02164001       405.690       733.091         7.898         0.562         3.783
  YS02164001YS02001641       405.153       732.179         7.878         0.560         3.772
  YS02001641YS02001644       405.192       732.162         7.873         0.560         3.769
  YS02001647YS02001649       416.641       764.711         8.259         0.576         3.944
  YS02006553YS02006556       684.100      1257.111        14.742         1.130         7.424
  YS02006556YS02006558       684.010      1256.929        14.713         1.126         7.405
  YSB6556YSB1171              26.521        51.968         0.537         0.045         0.272
  YS02001907YS02006553       684.251      1257.416        14.751         1.131         7.430
  YS02006558YS02006561      1017.955      1886.552        21.367         1.596        10.636
  YS02001633YS02163601       406.436       734.258         7.879         0.558         3.768
  YS02001644YS02001647       421.981       774.575         8.344         0.582         3.983
  YS02001745YS02001748       245.533       460.264         5.068         0.327         2.464
  YS02001748YS02001751       245.620       460.089         5.225         0.349         2.568
  YS02001751YS02001754       244.655       458.500         5.208         0.349         2.561
  YS02001754YS02001757       245.415       459.636         5.373         0.371         2.668
  YS02001882YS02001884         3.128         5.413         0.063         0.005         0.032
  YS02001884YS02001887         6.768        11.976         0.134         0.010         0.066
  YS02001890YS02001895       450.925       846.379         8.301         0.624         4.049
  YS02001895YS02001898       450.775       846.190         8.295         0.624         4.046
  YS02001898YS02001901       450.576       845.852         8.290         0.623         4.043
  YS02001901YS02001904       450.434       845.659         8.297         0.624         4.048
  YS02001904YS02001907       450.615       845.925         8.349         0.631         4.082
  YS02001887YS02001890       468.253       880.742         8.645         0.653         4.223
  YS02001652YS02001649       197.962       368.703         3.976         0.287         1.866
  YS02001655YS02001652       198.510       369.592         3.991         0.288         1.873
  YS02001658YS02001655       198.069       368.909         3.905         0.276         1.817
  YS02001661YS02001658       198.677       369.911         3.919         0.277         1.823
  YS02001664YS02001661       218.628       402.950         4.366         0.307         2.028
  YSB1154YSB6556              26.085        51.272         0.486         0.038         0.239
  YSB1174YSB1171              18.022        35.563         0.361         0.029         0.181
  YSB1171HS02004479           46.093        90.059         1.040         0.092         0.540
  HS02004881HS02006253        51.799       103.288         1.107         0.080         0.542
  YS02001793JiankangQianchi      1027.424      1901.746        22.297         1.713        11.219
  YS02001757CaochengTiaoxuchi       626.667      1137.545        12.892         0.899         6.286
  WSF200WS02003060           875.746      1636.911        22.690         1.971        11.914
  1                         2385.617      4132.936       148.057        17.327        89.345
  CC-Pump-1                  255.830       469.314         5.185         0.363         2.525
  CC-Pump-2                   98.449       180.545         1.997         0.140         0.973
  JK-Pump-1                  262.451       489.498         5.751         0.449         2.907
  JK-Pump-2                  528.727       997.511        10.885         0.813         5.405
  XR-Pump-1                  382.633       633.155        31.586         3.866        19.499
  XR-Pump-2                  382.633       633.155        31.586         3.866        19.499
  XR-Pump-3                  307.391       512.765        24.381         2.966        14.998
  XR-Pump-4                  307.391       512.765        24.381         2.966        14.998
  

  Analysis begun on:  Tue Jul 13 19:32:43 2021
  Analysis ended on:  Tue Jul 13 19:32:46 2021
  Total elapsed time: 00:00:03