
  EPA STORM WATER MANAGEMENT MODEL - VERSION 5.1 (Build 5.3.0.dev0)
  --------------------------------------------------------------

  WARNING 04: minimum elevation drop used for Conduit WS02004404WS02004405
  WARNING 03: negative offset ignored for Link YS02001904YS02001907
  
  *********************************************************
  NOTE: The summary statistics displayed in this report are
  based on results found at every computational time step,  
  not just on results from each reporting time step.
  *********************************************************
  
  ****************
  Analysis Options
  ****************
  Flow Units ............... LPS
  Process Models:
    Rainfall/Runoff ........ YES
    RDII ................... NO
    Snowmelt ............... NO
    Groundwater ............ NO
    Flow Routing ........... YES
    Ponding Allowed ........ NO
    Water Quality .......... YES
  Infiltration Method ...... HORTON
  Flow Routing Method ...... DYNWAVE
  Surcharge Method ......... EXTRAN
  Starting Date ............ 08/28/2015 08:00:00
  Ending Date .............. 08/28/2015 15:50:00
  Antecedent Dry Days ...... 8.0
  Report Time Step ......... 00:01:00
  Wet Time Step ............ 00:01:00
  Dry Time Step ............ 00:01:00
  Routing Time Step ........ 5.00 sec
  Variable Time Step ....... YES
  Maximum Trials ........... 8
  Number of Threads ........ 4
  Head Tolerance ........... 0.001500 m
  
  
  **************************        Volume         Depth
  Runoff Quantity Continuity     hectare-m            mm
  **************************     ---------       -------
  Total Precipitation ......         6.144        13.452
  Evaporation Loss .........         0.000         0.000
  Infiltration Loss ........         1.064         2.328
  Surface Runoff ...........         4.147         9.079
  Final Storage ............         0.935         2.047
  Continuity Error (%) .....        -0.020
  
  
  **************************           COD            SS            TN            TP         NH4-N
  Runoff Quality Continuity             kg            kg            kg            kg            kg
  **************************    ----------    ----------    ----------    ----------    ----------
  Initial Buildup ..........     41378.656     70582.865      1804.177       168.684      1032.807
  Surface Buildup ..........        21.799        40.924         2.400         0.218         1.395
  Wet Deposition ...........         0.000         0.000         0.000         0.000         0.000
  Sweeping Removal .........         0.000         0.000         0.000         0.000         0.000
  Infiltration Loss ........        97.311       184.943         1.849         0.130         0.881
  BMP Removal ..............         0.000         0.000         0.000         0.000         0.000
  Surface Runoff ...........      3769.819      7064.251        72.781         4.964        34.599
  Remaining Buildup ........     37531.916     63371.884      1731.919       163.806       998.709
  Continuity Error (%) .....         0.003         0.004         0.002         0.001         0.001
  
  
  **************************        Volume        Volume
  Flow Routing Continuity        hectare-m      10^6 ltr
  **************************     ---------     ---------
  Dry Weather Inflow .......         0.616         6.165
  Wet Weather Inflow .......         4.145        41.451
  Groundwater Inflow .......         0.000         0.000
  RDII Inflow ..............         0.000         0.000
  External Inflow ..........         0.102         1.024
  External Outflow .........         2.101        21.009
  Flooding Loss ............         2.345        23.454
  Evaporation Loss .........         0.000         0.000
  Exfiltration Loss ........         0.000         0.000
  Initial Stored Volume ....         0.076         0.761
  Final Stored Volume ......         0.625         6.246
  Continuity Error (%) .....        -2.649
  
  
  **************************           COD            SS            TN            TP         NH4-N
  Quality Routing Continuity            kg            kg            kg            kg            kg
  **************************    ----------    ----------    ----------    ----------    ----------
  Dry Weather Inflow .......      1541.201      2465.922       147.955        18.494        92.472
  Wet Weather Inflow .......      3768.927      7062.717        72.762         4.963        34.590
  Groundwater Inflow .......         0.000         0.000         0.000         0.000         0.000
  RDII Inflow ..............         0.000         0.000         0.000         0.000         0.000
  External Inflow ..........       183.418       293.469        17.608         2.201        11.005
  External Outflow .........      2462.279      4269.151       150.623        17.575        90.767
  Flooding Loss ............      2372.024      4429.048        60.679         5.292        31.877
  Exfiltration Loss ........         0.000         0.000         0.000         0.000         0.000
  Mass Reacted .............         0.000         0.000         0.000         0.000         0.000
  Initial Stored Mass ......         0.000         0.000         0.000         0.000         0.000
  Final Stored Mass ........       518.737       885.147        23.734         2.546        13.782
  Continuity Error (%) .....         2.558         2.431         1.380         0.957         1.189
  
  
  *************************
  Highest Continuity Errors
  *************************
  Node HS02004842 (13.41%)
  Node JK-storage (-12.35%)
  Node YS02001884 (11.20%)
  Node HS02004817 (2.53%)
  Node YSB1171 (2.46%)
  
  
  ***************************
  Time-Step Critical Elements
  ***************************
  Link WS02006252WS02006251 (63.23%)
  Link WS02006280WS02006229 (10.01%)
  Link WS02004404WS02004405 (7.25%)
  Link WS02006238WS02006235 (4.29%)
  Link YS02001793JiankangQianchi (2.77%)
  
  
  ********************************
  Highest Flow Instability Indexes
  ********************************
  Link YS02163601YS02164001 (39)
  Link YS02163301YS02001633 (39)
  Link YS02001629YS02163301 (39)
  Link YS02001619YS02001622 (39)
  Link WS02006113WS02006111 (38)
  
  
  *************************
  Routing Time Step Summary
  *************************
  Minimum Time Step           :     0.50 sec
  Average Time Step           :     1.14 sec
  Maximum Time Step           :     5.00 sec
  Percent in Steady State     :    -0.00
  Average Iterations per Step :     4.42
  Percent Not Converging      :    19.69
  
  
  ***************************
  Subcatchment Runoff Summary
  ***************************
  
  ------------------------------------------------------------------------------------------------------------------------------
                            Total      Total      Total      Total     Imperv       Perv      Total       Total     Peak  Runoff
                           Precip      Runon       Evap      Infil     Runoff     Runoff     Runoff      Runoff   Runoff   Coeff
  Subcatchment                 mm         mm         mm         mm         mm         mm         mm    10^6 ltr      LPS
  ------------------------------------------------------------------------------------------------------------------------------
  sub0                      13.45       0.00       0.00       0.63      12.47       0.31      12.77        0.01     3.75   0.950
  sub1                      13.45       0.00       0.00       1.12      11.88       0.36      12.24        0.08    25.66   0.910
  sub2                      13.45       0.00       0.00       4.44       8.39       0.53       8.92        0.08    25.29   0.663
  sub3                      13.45       0.00       0.00       4.56       8.35       0.42       8.77        0.20    55.75   0.652
  sub4                      13.45       0.00       0.00       1.22      11.71       0.26      11.97        0.25    65.52   0.890
  sub5                      13.45       0.00       0.00       0.68      12.41       0.26      12.67        0.14    44.76   0.942
  sub7                      13.45       0.00       0.00       0.86      12.18       0.35      12.53        0.04    14.26   0.931
  sub8                      13.45       0.00       0.00       0.87      12.17       0.34      12.50        0.08    26.26   0.930
  sub9                      13.45       0.00       0.00       0.88      12.17       0.33      12.50        0.06    19.64   0.929
  sub10                     13.45       0.00       0.00       0.78      12.29       0.29      12.58        0.14    44.00   0.935
  sub11                     13.45       0.00       0.00       0.77      12.30       0.31      12.61        0.15    48.45   0.938
  sub12                     13.45       0.00       0.00       1.25      11.66       0.50      12.16        0.11    38.10   0.904
  sub14                     13.45       0.00       0.00       0.88      12.16       0.33      12.49        0.12    38.67   0.929
  sub15                     13.45       0.00       0.00       3.37       9.35       0.66      10.01        0.17    57.01   0.744
  sub16                     13.45       0.00       0.00       3.56       8.97       0.88       9.85        0.10    37.63   0.732
  sub17                     13.45       0.00       0.00       3.47       9.10       0.84       9.94        0.09    30.67   0.739
  sub22                     13.45       0.00       0.00       4.98       7.63       0.81       8.43        0.53   184.54   0.627
  sub23                     13.45       0.00       0.00       4.17       8.43       0.81       9.24        0.44   154.22   0.687
  sub60                     13.45       0.00       0.00       1.53       9.85       0.09       9.93        3.01   438.14   0.738
  sub61                     13.45       0.00       0.00       2.16       9.95       0.12      10.07        3.11   536.45   0.749
  sub62                     13.45       0.00       0.00       0.98      10.84       0.10      10.94        3.36   552.35   0.813
  sub63                     13.45       0.00       0.00       3.77       8.69       0.14       8.83        2.67   492.63   0.656
  sub64                     13.45       0.00       0.00       1.93       9.45       0.09       9.54        2.90   416.72   0.709
  sub65                     13.45       0.00       0.00       1.67       9.61       0.08       9.70        2.98   423.09   0.721
  sub66                     13.45       0.00       0.00       3.81       8.10       0.09       8.18        2.51   380.66   0.608
  sub67                     13.45       0.00       0.00       0.95      11.38       0.13      11.51        3.55   679.52   0.856
  sub68                     13.45       0.00       0.00       1.75      10.45       0.13      10.59        3.26   586.26   0.787
  sub69                     13.45       0.00       0.00       1.83      10.79       0.19      10.98        2.57   544.72   0.816
  sub70                     13.45      11.20       0.00       7.51      14.65       0.88      15.52        3.55   494.81   0.630
  sub71                     13.45       0.00       0.00       0.99      10.58       0.09      10.67        2.52   389.24   0.793
  sub72                     13.45       0.00       0.00       0.89       8.56       0.05       8.61        1.75   189.18   0.640
  1                         13.45      15.11       0.00       1.37      16.56       4.63      21.19        4.98   484.42   0.742
  2                         13.45       0.00       0.00       3.02       3.21       1.96       5.17        2.07   340.45   0.384
  
  
  ****************************
  Subcatchment Washoff Summary
  ****************************
  
  ------------------------------------------------------------------------------------------
                                 COD            SS            TN            TP         NH4-N
  Subcatchment                    kg            kg            kg            kg            kg
  ------------------------------------------------------------------------------------------
  sub0                         2.670         5.197         0.046         0.004         0.022
  sub1                        11.241        22.423         0.210         0.015         0.101
  sub2                         6.894        13.384         0.145         0.010         0.067
  sub3                        16.924        32.573         0.350         0.024         0.161
  sub4                        25.772        51.904         0.510         0.031         0.245
  sub5                        25.778        50.682         0.460         0.035         0.223
  sub7                         5.751        11.638         0.108         0.007         0.052
  sub8                         8.581        17.755         0.171         0.010         0.082
  sub9                         7.353        15.005         0.142         0.009         0.068
  sub10                       21.202        42.223         0.389         0.028         0.188
  sub11                       20.657        41.614         0.386         0.026         0.187
  sub12                       17.724        35.094         0.321         0.024         0.155
  sub14                       15.732        31.800         0.298         0.020         0.144
  sub15                       20.231        39.321         0.389         0.028         0.182
  sub16                       13.129        25.518         0.249         0.019         0.117
  sub17                       12.049        23.208         0.222         0.017         0.105
  sub22                       62.582       119.432         1.186         0.090         0.554
  sub23                       36.683        72.439         0.776         0.051         0.357
  sub60                      243.520       456.962         4.842         0.298         2.321
  sub61                      302.151       564.434         5.627         0.386         2.710
  sub62                      313.722       596.076         6.119         0.388         2.938
  sub63                      223.275       410.850         4.468         0.314         2.075
  sub64                      305.877       553.773         5.626         0.410         2.687
  sub65                      313.037       569.066         5.795         0.415         2.772
  sub66                      176.068       321.340         3.608         0.236         1.687
  sub67                      466.222       877.505         8.365         0.616         4.045
  sub68                      332.037       626.413         6.347         0.429         3.034
  sub69                      298.258       568.561         5.590         0.393         2.674
  sub70                      502.897       962.303        10.037         0.699         4.710
  sub71                      206.745       396.330         4.242         0.246         2.030
  sub72                      164.385       293.107         3.069         0.210         1.476
  1                          349.075       671.606         7.102         0.495         3.297
  2                           42.749        75.577         1.214         0.073         0.518
  ------------------------------------------------------------------------------------------
  System                    4570.974      8595.115        88.408         6.057        41.983
  
  
  ******************
  Node Depth Summary
  ******************
  
  ---------------------------------------------------------------------------------
                                 Average  Maximum  Maximum  Time of Max    Reported
                                   Depth    Depth      HGL   Occurrence   Max Depth
  Node                 Type       Meters   Meters   Meters  days hr:min      Meters
  ---------------------------------------------------------------------------------
  WS02001211           JUNCTION     0.78     0.85     5.69     0  03:07        0.85
  WS02001212           JUNCTION     0.49     0.58     5.64     0  03:06        0.58
  WS02001213           JUNCTION     0.73     0.85     5.62     0  03:05        0.85
  WS02003069           JUNCTION     0.54     0.72     5.30     0  03:05        0.72
  WS02003072           JUNCTION     0.60     0.76     5.13     0  03:06        0.76
  WS02003073           JUNCTION     0.37     0.48     4.54     0  03:06        0.48
  WS02003060           JUNCTION     0.48     0.63     5.57     0  03:05        0.63
  WS02003066           JUNCTION     0.27     0.39     5.94     0  03:04        0.39
  WS02003059           JUNCTION     0.78     0.91     5.60     0  03:05        0.91
  WS02003067           JUNCTION     0.64     0.82     6.14     0  03:03        0.82
  WS02004401           JUNCTION     0.78     1.24     7.24     0  03:02        1.23
  WS02004402           JUNCTION     0.80     1.22     7.18     0  03:02        1.22
  WS02004403           JUNCTION     0.82     1.20     7.13     0  03:02        1.19
  WS02004404           JUNCTION     0.89     1.25     7.10     0  03:02        1.24
  WS02004406           JUNCTION     0.89     1.16     6.99     0  03:02        1.16
  WS02004409           JUNCTION     0.59     0.96     6.73     0  03:03        0.96
  WS02004410           JUNCTION     0.61     0.95     6.67     0  03:03        0.95
  WS02004411           JUNCTION     0.62     0.93     6.61     0  03:03        0.93
  WS02004412           JUNCTION     0.63     0.90     6.54     0  03:03        0.90
  WS02004413           JUNCTION     0.79     1.02     6.49     0  03:03        1.02
  WS02004405           JUNCTION     0.89     1.22     7.07     0  03:02        1.21
  WS02006109           JUNCTION     0.87     1.66     8.27     0  03:02        1.65
  WS02006110           JUNCTION     0.84     1.45     8.04     0  03:02        1.44
  WS02006111           JUNCTION     0.27     0.89     7.59     0  03:02        0.88
  WS02006112           JUNCTION     0.96     1.56     7.44     0  03:02        1.55
  WS02006113           JUNCTION     0.40     0.92     7.82     0  03:02        0.92
  WS02006115           JUNCTION     0.68     1.22     7.36     0  03:02        1.21
  WS02006116           JUNCTION     0.76     1.26     7.30     0  03:02        1.25
  WS02006230           JUNCTION     0.91     1.88     8.62     0  03:02        1.86
  WS02006231           JUNCTION     0.64     1.52     8.65     0  03:02        1.52
  WS02006232           JUNCTION     0.80     1.63     8.67     0  03:02        1.61
  WS02006234           JUNCTION     0.75     1.53     8.68     0  03:02        1.52
  WS02006235           JUNCTION     0.80     1.54     8.71     0  03:02        1.53
  WS02006238           JUNCTION     0.82     1.56     8.70     0  03:02        1.55
  WS02006240           JUNCTION     0.73     1.40     8.70     0  03:02        1.40
  WS02006242           JUNCTION     0.79     1.43     8.70     0  03:01        1.42
  WS02006243           JUNCTION     0.68     1.28     8.70     0  03:02        1.27
  WS02006245           JUNCTION     0.66     1.22     8.70     0  03:02        1.21
  WS02006247           JUNCTION     0.67     1.20     8.70     0  03:02        1.19
  WS02006248           JUNCTION     0.61     1.10     8.69     0  02:58        1.10
  WS02006249           JUNCTION     0.63     1.09     8.69     0  02:55        1.09
  WS02006239           JUNCTION     0.79     1.49     8.70     0  03:02        1.48
  WS02006251           JUNCTION     0.60     1.25     8.92     0  07:38        1.14
  WS02006252           JUNCTION     0.37     0.80     9.04     0  05:10        0.68
  WS02006253           JUNCTION     0.63     1.54     9.18     0  05:48        1.17
  WS02006256           JUNCTION     1.79     2.35     9.28     0  00:00        2.35
  WS02004138           JUNCTION     0.19     0.20     7.45     0  00:00        0.19
  WS02004139           JUNCTION     0.72     0.79     5.70     0  03:07        0.79
  WS02004407           JUNCTION     0.26     0.40     6.71     0  03:02        0.40
  WS02006228           JUNCTION     0.90     1.83     8.48     0  03:02        1.82
  WS02006229           JUNCTION     0.89     1.90     8.59     0  03:02        1.89
  WS02006280           JUNCTION     0.07     0.30     8.57     0  03:05        0.30
  WS02006284           JUNCTION     0.37     0.65     9.04     0  03:02        0.64
  WS02006287           JUNCTION     0.10     0.39     9.34     0  03:02        0.39
  WSF200               JUNCTION     0.26     0.44     5.67     0  03:04        0.44
  HS02004901           JUNCTION     0.13     0.38    10.20     0  03:01        0.37
  HS02004881           JUNCTION     0.01     0.05     9.08     0  03:01        0.05
  HS02004876           JUNCTION     0.04     0.16     9.19     0  03:01        0.16
  HS02004870           JUNCTION     0.02     0.09     9.38     0  03:01        0.09
  HS02004862           JUNCTION     0.02     0.11     9.49     0  03:01        0.11
  HS02004856           JUNCTION     0.08     0.15     9.58     0  03:01        0.15
  HS02004852           JUNCTION     0.01     0.07     9.59     0  03:02        0.07
  HS02004848           JUNCTION     0.01     0.07     9.67     0  03:01        0.07
  HS02004842           JUNCTION     0.33     0.40     9.67     0  03:01        0.40
  HS02004837           JUNCTION     0.03     0.09     9.67     0  03:01        0.09
  HS02004830           JUNCTION     0.04     0.10     9.57     0  03:01        0.10
  HS02004824           JUNCTION     0.02     0.13     9.53     0  03:02        0.13
  HS02004817           JUNCTION     0.44     0.69     9.54     0  03:02        0.69
  HS02004807           JUNCTION     0.13     0.36     9.53     0  03:02        0.36
  HS02004802           JUNCTION     0.17     0.39     9.52     0  03:02        0.39
  HS02004799           JUNCTION     0.12     0.46     9.68     0  03:01        0.46
  HS02004792           JUNCTION     0.03     0.22     9.74     0  03:01        0.21
  HS02004788           JUNCTION     0.03     0.16    10.05     0  03:02        0.16
  HS02004785           JUNCTION     0.05     0.25    10.15     0  03:02        0.25
  HS02004777           JUNCTION     0.15     0.39    10.19     0  03:01        0.39
  HS02004770           JUNCTION     0.12     0.37    10.20     0  03:01        0.36
  HS02004480           JUNCTION     0.08     0.38     9.62     0  03:01        0.38
  HS02004479           JUNCTION     0.12     0.42     9.62     0  03:01        0.42
  HS02004478           JUNCTION     0.06     0.28     9.50     0  03:01        0.28
  YS02001745           JUNCTION     0.73     0.95     8.47     0  03:01        0.95
  YS02001748           JUNCTION     1.13     1.63     8.70     0  02:33        1.38
  YS02001751           JUNCTION     1.31     1.58     8.46     0  02:33        1.57
  YS02001754           JUNCTION     1.57     1.84     8.45     0  03:00        1.84
  YS02001762           JUNCTION     1.77     2.04     8.44     0  03:00        2.03
  YS02001765           JUNCTION     1.72     1.99     8.44     0  03:00        1.98
  YS02001767           JUNCTION     1.68     1.95     8.44     0  03:00        1.94
  YS02001770           JUNCTION     1.68     1.94     8.43     0  02:59        1.92
  YS02001774           JUNCTION     1.74     1.99     8.41     0  02:59        1.98
  YS02001779           JUNCTION     1.49     1.68     8.37     0  02:41        1.68
  YS02001882           JUNCTION     0.56     1.63     8.35     0  03:02        1.63
  YS02001884           JUNCTION     0.65     1.74     8.35     0  03:00        1.73
  YS02001759           JUNCTION     1.80     2.08     8.45     0  03:00        2.07
  YS02001887           JUNCTION     0.73     1.81     8.35     0  03:00        1.81
  YS02001890           JUNCTION     0.76     1.81     8.32     0  02:49        1.81
  YS02001898           JUNCTION     0.53     1.56     8.30     0  02:49        1.56
  YS02001901           JUNCTION     0.65     1.68     8.29     0  02:56        1.67
  YS02001904           JUNCTION     0.62     1.64     8.27     0  02:55        1.63
  YS02001907           JUNCTION     0.96     1.96     8.25     0  02:49        1.96
  YS02001910           JUNCTION     0.75     1.79     8.29     0  02:50        1.77
  YS02001915           JUNCTION     0.54     1.60     8.32     0  02:49        1.60
  YS02001918           JUNCTION     0.29     1.30     8.36     0  02:50        1.29
  YS02001619           JUNCTION     1.27     1.50     8.43     0  02:32        1.48
  YS02001629           JUNCTION     1.63     1.85     8.39     0  02:59        1.84
  YS02001641           JUNCTION     1.73     1.94     8.37     0  06:18        1.93
  YS02001644           JUNCTION     1.73     1.92     8.35     0  02:39        1.92
  YS02001652           JUNCTION     1.58     2.13     8.73     0  02:43        1.85
  YS02001655           JUNCTION     1.34     2.18     9.03     0  02:43        1.63
  YS02001920           JUNCTION     0.39     1.38     8.38     0  02:50        1.37
  YS02001923           JUNCTION     0.23     1.14     8.40     0  02:50        1.14
  YS02001926           JUNCTION     0.29     0.95     8.40     0  02:50        0.95
  YS02001929           JUNCTION     0.17     0.71     8.41     0  02:50        0.70
  YS02001658           JUNCTION     1.07     2.20     9.34     0  02:43        1.41
  YS02001661           JUNCTION     0.84     2.44     9.84     0  02:44        1.32
  YS02001664           JUNCTION     0.37     0.57     8.50     0  02:42        0.56
  YS02001622           JUNCTION     1.30     1.51     8.41     0  02:32        1.49
  YS02001633           JUNCTION     1.72     1.95     8.40     0  02:55        1.94
  YS02001649           JUNCTION     1.77     2.05     8.44     0  02:42        2.04
  YS02001757           JUNCTION     1.90     2.18     8.44     0  03:15        2.18
  YS02001895           JUNCTION     0.52     1.57     8.31     0  02:49        1.56
  YS02001625           JUNCTION     1.58     1.78     8.38     0  02:32        1.78
  YS02163301           JUNCTION     1.66     1.88     8.40     0  06:18        1.88
  YS02163601           JUNCTION     1.77     1.99     8.39     0  06:18        1.98
  YS02164001           JUNCTION     1.71     1.92     8.38     0  02:46        1.91
  YS02001647           JUNCTION     1.56     1.80     8.41     0  02:42        1.79
  YSB1154              JUNCTION     0.26     0.57     9.62     0  03:01        0.57
  YSB6556              JUNCTION     0.15     0.45     9.62     0  03:02        0.45
  YSB1174              JUNCTION     0.21     0.52     9.62     0  03:01        0.51
  YSB1171              JUNCTION     0.41     0.72     9.62     0  03:01        0.72
  YS02006553           JUNCTION     0.96     1.97     8.25     0  02:59        1.96
  YS02006561           JUNCTION     0.31     1.07     7.73     0  03:01        1.07
  YS02006556           JUNCTION     0.92     1.94     8.25     0  02:59        1.93
  YS02006558           JUNCTION     0.97     1.97     8.24     0  03:00        1.97
  YS02001783           JUNCTION     0.53     1.56     7.70     0  02:22        1.45
  YS02001784           JUNCTION     0.55     1.40     7.47     0  03:00        1.39
  YS02001786           JUNCTION     0.49     1.28     7.31     0  02:22        1.23
  YS02001788           JUNCTION     0.41     1.23     7.21     0  02:22        1.09
  YS02001790           JUNCTION     0.53     1.96     7.60     0  04:46        1.25
  YS02001791           JUNCTION     0.48     2.28     7.75     0  04:45        1.23
  YS02001793           JUNCTION     0.65     2.94     7.77     0  04:43        1.79
  WSC                  OUTFALL      0.37     0.48     1.15     0  03:07        0.48
  JK-storage           STORAGE      2.50     5.80     6.60     0  02:21        5.80
  CC-storage           STORAGE      1.16     1.45     8.45     0  03:14        1.45
  XR-storage           STORAGE      6.68     7.72     5.72     0  02:59        7.72
  
  
  *******************
  Node Inflow Summary
  *******************
  
  -------------------------------------------------------------------------------------------------
                                  Maximum  Maximum                  Lateral       Total        Flow
                                  Lateral    Total  Time of Max      Inflow      Inflow     Balance
                                   Inflow   Inflow   Occurrence      Volume      Volume       Error
  Node                 Type           LPS      LPS  days hr:min    10^6 ltr    10^6 ltr     Percent
  -------------------------------------------------------------------------------------------------
  WS02001211           JUNCTION      7.35   391.89     0  03:17       0.207        10.1       0.409
  WS02001212           JUNCTION      0.00   396.51     0  03:16           0          10       0.249
  WS02001213           JUNCTION      0.00   400.47     0  03:16           0          10       0.300
  WS02003069           JUNCTION      0.32  1332.06     0  03:05     0.00902        21.1       0.188
  WS02003072           JUNCTION      0.00  1331.75     0  03:05           0        21.1       0.220
  WS02003073           JUNCTION      1.82  1333.72     0  03:06      0.0514        21.1       0.258
  WS02003060           JUNCTION     16.53  1331.86     0  03:04       0.466        21.1       0.176
  WS02003066           JUNCTION      0.00   938.62     0  03:04           0        10.7       0.051
  WS02003059           JUNCTION      0.00   405.29     0  03:15           0        9.99       0.420
  WS02003067           JUNCTION      0.00   938.07     0  03:04           0        10.7       0.101
  WS02004401           JUNCTION      0.00   939.95     0  03:02           0          11       0.224
  WS02004402           JUNCTION      0.00   940.10     0  03:02           0          11       0.207
  WS02004403           JUNCTION      0.00   939.89     0  03:02           0          11       0.186
  WS02004404           JUNCTION      0.16   940.20     0  03:02     0.00457        10.9       0.137
  WS02004406           JUNCTION      0.00   940.23     0  03:02           0        10.9       0.333
  WS02004409           JUNCTION      0.00   939.57     0  03:02           0        10.9       0.192
  WS02004410           JUNCTION      0.00   938.35     0  03:03           0        10.8       0.212
  WS02004411           JUNCTION      0.00   937.77     0  03:03           0        10.8       0.214
  WS02004412           JUNCTION      0.00   937.53     0  03:03           0        10.8       0.225
  WS02004413           JUNCTION      0.00   938.01     0  03:04           0        10.8       0.323
  WS02004405           JUNCTION      0.04   942.50     0  03:02     0.00107        10.9       0.203
  WS02006109           JUNCTION      1.23   915.45     0  03:03      0.0347        11.1       0.197
  WS02006110           JUNCTION      0.00   915.66     0  03:03           0          11       0.192
  WS02006111           JUNCTION      0.00   915.85     0  03:03           0          11       0.044
  WS02006112           JUNCTION     30.67   939.27     0  03:02      0.0853        11.1       0.302
  WS02006113           JUNCTION      0.00   915.61     0  03:03           0          11       0.115
  WS02006115           JUNCTION      0.00   939.35     0  03:02           0        11.1       0.225
  WS02006116           JUNCTION      0.00   939.62     0  03:02           0          11       0.193
  WS02006230           JUNCTION     10.28   532.87     0  07:15        0.29        8.64       0.201
  WS02006231           JUNCTION      0.00   522.63     0  07:19           0        8.37       0.150
  WS02006232           JUNCTION      0.00   523.22     0  06:44           0        8.39       0.218
  WS02006234           JUNCTION      0.00   524.19     0  07:20           0         8.4       0.130
  WS02006235           JUNCTION      0.00   525.93     0  06:44           0        8.47       0.141
  WS02006238           JUNCTION      0.00   414.29     0  07:40           0        5.05       0.177
  WS02006240           JUNCTION      0.00   413.08     0  07:40           0        5.02       0.336
  WS02006242           JUNCTION      0.00   413.13     0  07:40           0        5.02       0.367
  WS02006243           JUNCTION      0.00   413.43     0  07:40           0        5.01       0.281
  WS02006245           JUNCTION      0.00   414.06     0  07:40           0        5.02       0.272
  WS02006247           JUNCTION      0.00   414.39     0  07:40           0        5.03       0.226
  WS02006248           JUNCTION      0.00   415.27     0  07:40           0        5.04       0.206
  WS02006249           JUNCTION      0.00   426.62     0  06:44           0        5.49       0.278
  WS02006239           JUNCTION      0.00   414.09     0  07:40           0        5.04       0.268
  WS02006251           JUNCTION      0.08   422.38     0  03:30     0.00217        5.55       0.311
  WS02006252           JUNCTION      0.00   400.00     0  03:30           0        5.04       0.010
  WS02006253           JUNCTION      3.75   143.69     0  03:01      0.0103       0.521       2.481
  WS02006256           JUNCTION      0.00   983.00     0  02:40           0        10.7       0.003
  WS02004138           JUNCTION      0.00   380.00     0  00:00           0        9.92       0.065
  WS02004139           JUNCTION      0.32   395.85     0  00:00     0.00905        9.92       0.466
  WS02004407           JUNCTION      0.00   940.16     0  03:02           0        10.9       0.085
  WS02006228           JUNCTION      0.00   914.06     0  03:03           0          11       0.152
  WS02006229           JUNCTION      0.00   917.49     0  03:01           0        11.1       0.131
  WS02006280           JUNCTION      0.00   680.08     0  03:02           0        2.43       0.007
  WS02006284           JUNCTION      0.10   678.95     0  03:02      0.0027        2.43       0.046
  WS02006287           JUNCTION      0.00   677.59     0  03:02           0        2.43       0.031
  WSF200               JUNCTION      0.00   938.79     0  03:04           0        10.7       0.051
  HS02004901           JUNCTION     37.63    37.63     0  03:01       0.103       0.103       1.740
  HS02004881           JUNCTION     14.26   140.52     0  03:01      0.0422       0.463       0.105
  HS02004876           JUNCTION     25.66   127.64     0  03:01      0.0814       0.422       0.131
  HS02004870           JUNCTION     26.26   103.57     0  03:01      0.0799        0.34       0.034
  HS02004862           JUNCTION     25.49    79.36     0  03:01      0.0888       0.261       0.067
  HS02004856           JUNCTION     19.64    55.41     0  03:01      0.0601       0.173       0.845
  HS02004852           JUNCTION      0.00    37.84     0  03:01           0       0.113       0.053
  HS02004848           JUNCTION     55.75    55.75     0  03:01       0.197       0.197       0.027
  HS02004842           JUNCTION      0.00    16.84     0  03:01           0       0.097      15.491
  HS02004837           JUNCTION     50.35    65.70     0  03:01       0.318       0.402       0.204
  HS02004830           JUNCTION      0.15    64.79     0  03:01     0.00423       0.392       0.316
  HS02004824           JUNCTION     65.57   128.44     0  03:01       0.251       0.642       0.085
  HS02004817           JUNCTION      0.60   124.46     0  03:01      0.0169       0.658       2.600
  HS02004807           JUNCTION     48.45   165.82     0  03:01       0.147       0.788       0.554
  HS02004802           JUNCTION      0.00   165.32     0  03:04           0       0.785       0.507
  HS02004799           JUNCTION     38.67   446.02     0  03:01       0.119        1.42       0.191
  HS02004792           JUNCTION    184.82   411.85     0  03:01        0.54         1.3       0.033
  HS02004788           JUNCTION     58.68   233.41     0  03:02       0.219       0.758       0.053
  HS02004785           JUNCTION      0.15   182.19     0  03:01     0.00423        0.54       0.093
  HS02004777           JUNCTION      0.03   185.00     0  03:01    0.000846       0.541       0.971
  HS02004770           JUNCTION    154.22   188.95     0  03:01       0.441       0.542       0.577
  HS02004480           JUNCTION      0.00   517.15     0  03:01           0        1.66       0.070
  HS02004479           JUNCTION      0.00    75.44     0  03:02           0       0.258       0.286
  HS02004478           JUNCTION      0.00   677.01     0  03:02           0        2.43       0.011
  YS02001745           JUNCTION    438.14   438.14     0  03:01        3.01        3.02       0.319
  YS02001748           JUNCTION      0.04   583.39     0  02:32     0.00127        3.01       0.685
  YS02001751           JUNCTION      0.01   442.08     0  03:01     0.00031        2.98       0.794
  YS02001754           JUNCTION      0.26   442.95     0  03:01     0.00733        2.97       0.848
  YS02001762           JUNCTION      0.00   313.35     0  02:43           0        2.08       1.027
  YS02001765           JUNCTION      0.00   314.19     0  02:43           0        2.09       1.187
  YS02001767           JUNCTION      0.54   314.57     0  02:43      0.0151        2.11       1.724
  YS02001770           JUNCTION    552.50   694.05     0  03:14        3.37        3.82       0.840
  YS02001774           JUNCTION      0.00   694.06     0  03:14           0        2.15       1.187
  YS02001779           JUNCTION      0.01   694.06     0  03:14    0.000141        2.12       0.736
  YS02001882           JUNCTION      0.00    19.61     0  04:15           0      0.0178      14.710
  YS02001884           JUNCTION      0.00    26.03     0  02:38           0      0.0561      12.615
  YS02001759           JUNCTION    536.49   619.87     0  02:43        3.11        4.71       0.487
  YS02001887           JUNCTION    679.97   680.63     0  03:01        3.56         3.6       0.243
  YS02001890           JUNCTION      0.00   680.80     0  03:01           0        3.55       0.267
  YS02001898           JUNCTION      0.00   517.76     0  03:02           0        3.45       0.097
  YS02001901           JUNCTION      0.00   517.64     0  03:02           0        3.45       0.205
  YS02001904           JUNCTION      0.00   517.94     0  03:02           0        3.44       0.186
  YS02001907           JUNCTION      0.00  1096.24     0  03:02           0        7.77       0.319
  YS02001910           JUNCTION      0.00   579.41     0  03:02           0        4.34       0.280
  YS02001915           JUNCTION    389.26   579.05     0  03:02        2.52        4.35       0.144
  YS02001918           JUNCTION      0.00   264.79     0  02:50           0        1.84       0.092
  YS02001619           JUNCTION    380.66   380.66     0  03:01        2.51        2.51       0.484
  YS02001629           JUNCTION      0.00   196.75     0  02:39           0        1.59       1.839
  YS02001641           JUNCTION      0.00   412.44     0  02:39           0        4.45       0.476
  YS02001644           JUNCTION    416.76  1525.90     0  03:01         2.9        10.5       0.247
  YS02001652           JUNCTION      0.00   499.03     0  03:01           0        2.63       0.889
  YS02001655           JUNCTION      0.15   498.84     0  03:01     0.00434        2.66       0.930
  YS02001920           JUNCTION      2.87   264.41     0  02:50      0.0809        1.84       0.169
  YS02001923           JUNCTION      0.04   228.92     0  02:50     0.00106        1.76       0.057
  YS02001926           JUNCTION      0.05   197.91     0  03:02     0.00147        1.75       0.191
  YS02001929           JUNCTION    189.18   189.18     0  03:01        1.75        1.75       0.035
  YS02001658           JUNCTION      0.00   580.01     0  02:29           0        2.68       0.781
  YS02001661           JUNCTION      0.00   671.20     0  02:42           0        3.09      -0.147
  YS02001664           JUNCTION    492.63   492.63     0  03:01        2.67        3.08       0.141
  YS02001622           JUNCTION      0.00   381.16     0  03:01           0         2.5       1.293
  YS02001633           JUNCTION    423.29   423.29     0  03:01        2.99        4.52       0.715
  YS02001649           JUNCTION      0.00   876.63     0  02:39           0        6.12       0.611
  YS02001757           JUNCTION      0.00  1679.64     0  02:40           0          10       0.924
  YS02001895           JUNCTION      0.00   517.56     0  03:03           0        3.45       0.152
  YS02001625           JUNCTION      0.00   407.50     0  03:01           0        2.47       1.596
  YS02163301           JUNCTION      0.00   209.34     0  02:32           0        1.57       1.565
  YS02163601           JUNCTION      0.11   413.16     0  02:39      0.0031        4.48       0.675
  YS02164001           JUNCTION      0.00   413.13     0  02:39           0        4.46       0.455
  YS02001647           JUNCTION      0.00   791.36     0  03:15           0        5.24       0.537
  YSB1154              JUNCTION     44.76    44.76     0  03:01       0.144       0.144       1.016
  YSB6556              JUNCTION      0.00    43.26     0  03:01           0       0.145       0.870
  YSB1174              JUNCTION     38.10    38.10     0  03:01       0.106       0.107       1.221
  YSB1171              JUNCTION      0.00    76.92     0  03:01           0       0.257       2.525
  YS02006553           JUNCTION      0.00   708.88     0  03:46           0        6.75       0.230
  YS02006561           JUNCTION      0.00  1044.12     0  02:49           0        9.98       0.006
  YS02006556           JUNCTION      0.00   708.60     0  03:45           0        6.75       0.170
  YS02006558           JUNCTION    587.14  1044.45     0  02:49        3.28          10       0.053
  YS02001783           JUNCTION      0.00  1044.25     0  02:49           0        9.98       0.025
  YS02001784           JUNCTION      1.06  1044.86     0  02:49      0.0299          10       0.037
  YS02001786           JUNCTION      0.06  1044.50     0  02:49     0.00159          10       0.035
  YS02001788           JUNCTION      0.07  1044.29     0  02:49       0.002          10       0.025
  YS02001790           JUNCTION      0.15  1045.05     0  02:49     0.00437          10       0.019
  YS02001791           JUNCTION      0.00  1044.99     0  02:49           0          10       0.012
  YS02001793           JUNCTION      0.00  1045.63     0  02:49           0          10      -0.020
  WSC                  OUTFALL       0.00  1333.92     0  03:07           0          21       0.000
  JK-storage           STORAGE       0.00  1045.21     0  02:49           0        10.2     -10.989
  CC-storage           STORAGE       0.00  1679.88     0  02:40           0        8.39       0.722
  XR-storage           STORAGE    1024.87  1024.87     0  03:01        12.7        13.3      -0.003
  
  
  **********************
  Node Surcharge Summary
  **********************
  
  Surcharging occurs when water rises above the top of the highest conduit.
  ---------------------------------------------------------------------
                                               Max. Height   Min. Depth
                                   Hours       Above Crown    Below Rim
  Node                 Type      Surcharged         Meters       Meters
  ---------------------------------------------------------------------
  WS02004401           JUNCTION        0.44          0.237        1.423
  WS02004402           JUNCTION        0.47          0.225        1.515
  WS02004403           JUNCTION        0.48          0.199        1.831
  WS02004404           JUNCTION        1.08          0.246        2.534
  WS02004406           JUNCTION        0.86          0.163        2.287
  WS02004413           JUNCTION        0.18          0.023        2.177
  WS02004405           JUNCTION        0.95          0.221        2.579
  WS02006109           JUNCTION        4.63          0.836        0.984
  WS02006110           JUNCTION        2.47          0.542        1.308
  WS02006111           JUNCTION        0.13          0.076        1.794
  WS02006112           JUNCTION        2.83          0.558        1.122
  WS02006113           JUNCTION        0.15          0.124        1.806
  WS02006115           JUNCTION        0.31          0.211        2.039
  WS02006116           JUNCTION        0.33          0.202        2.088
  WS02006230           JUNCTION        2.19          0.797        0.773
  WS02006231           JUNCTION        2.70          0.812        0.718
  WS02006232           JUNCTION        4.41          0.926        0.554
  WS02006234           JUNCTION        3.94          0.805        0.435
  WS02006235           JUNCTION        4.14          0.832        0.458
  WS02006238           JUNCTION        4.23          0.836        0.594
  WS02006240           JUNCTION        3.97          0.693        0.697
  WS02006242           JUNCTION        4.16          0.699        0.121
  WS02006243           JUNCTION        3.26          0.568        0.202
  WS02006245           JUNCTION        3.02          0.505        0.345
  WS02006247           JUNCTION        3.06          0.487        0.273
  WS02006248           JUNCTION        2.62          0.380        0.000
  WS02006249           JUNCTION        2.72          0.390        0.000
  WS02006239           JUNCTION        4.04          0.750        0.540
  WS02006251           JUNCTION        1.53          0.218        0.962
  WS02006252           JUNCTION        3.05          0.396        0.704
  WS02006253           JUNCTION        1.60          0.497        1.983
  WS02006256           JUNCTION        6.84          2.050        0.000
  WS02006228           JUNCTION        4.59          0.997        1.203
  YS02001748           JUNCTION        5.23          0.546        0.644
  YS02001751           JUNCTION        5.38          0.578        0.622
  YS02001754           JUNCTION        5.58          0.788        0.362
  YS02001762           JUNCTION        5.75          1.044        0.106
  YS02001765           JUNCTION        5.72          0.993        0.107
  YS02001767           JUNCTION        5.70          0.950        0.080
  YS02001770           JUNCTION        5.68          0.907        0.013
  YS02001774           JUNCTION        5.74          0.988        0.062
  YS02001779           JUNCTION        5.56          0.680        0.000
  YS02001882           JUNCTION        1.11          0.634        0.196
  YS02001884           JUNCTION        1.14          0.676        0.194
  YS02001759           JUNCTION        5.78          1.082        0.128
  YS02001887           JUNCTION        1.21          0.763        0.187
  YS02001890           JUNCTION        1.24          0.760        0.000
  YS02001898           JUNCTION        1.06          0.534        0.206
  YS02001901           JUNCTION        1.18          0.677        0.193
  YS02001904           JUNCTION        1.16          0.636        0.214
  YS02001907           JUNCTION        1.91          0.950        0.000
  YS02001910           JUNCTION        1.28          0.788        0.312
  YS02001915           JUNCTION        1.08          0.604        0.396
  YS02001918           JUNCTION        0.88          0.295        0.515
  YS02001619           JUNCTION        5.37          0.496        0.114
  YS02001629           JUNCTION        5.39          0.466        0.004
  YS02001641           JUNCTION        5.73          0.935        0.165
  YS02001644           JUNCTION        5.73          0.920        0.000
  YS02001652           JUNCTION        5.61          1.103        0.027
  YS02001655           JUNCTION        5.40          1.177        0.023
  YS02001920           JUNCTION        0.91          0.375        0.765
  YS02001658           JUNCTION        5.25          1.203        0.097
  YS02001661           JUNCTION        0.16          1.370        0.020
  YS02001622           JUNCTION        5.41          0.507        0.113
  YS02001633           JUNCTION        5.71          0.925        0.135
  YS02001649           JUNCTION        5.75          1.050        0.000
  YS02001757           JUNCTION        5.86          1.178        0.032
  YS02001895           JUNCTION        1.07          0.567        0.183
  YS02001625           JUNCTION        5.64          0.780        0.000
  YS02163301           JUNCTION        5.69          0.882        0.148
  YS02163601           JUNCTION        5.75          0.990        0.090
  YS02164001           JUNCTION        5.72          0.919        0.181
  YS02001647           JUNCTION        5.62          0.803        0.097
  YS02006553           JUNCTION        1.98          0.967        0.223
  YS02006561           JUNCTION        0.90          0.274        0.876
  YS02006556           JUNCTION        1.50          0.895        0.455
  YS02006558           JUNCTION        1.46          0.875        0.525
  YS02001783           JUNCTION        1.49          0.763        0.837
  YS02001784           JUNCTION        1.47          0.599        0.891
  YS02001786           JUNCTION        1.37          0.483        0.947
  YS02001788           JUNCTION        1.22          0.428        1.052
  YS02001790           JUNCTION        2.01          1.157        0.000
  YS02001791           JUNCTION        2.10          1.485        0.435
  YS02001793           JUNCTION        2.35          1.939        0.661
  
  
  *********************
  Node Flooding Summary
  *********************
  
  Flooding refers to all water that overflows a node, whether it ponds or not.
  --------------------------------------------------------------------------
                                                             Total   Maximum
                                 Maximum   Time of Max       Flood    Ponded
                        Hours       Rate    Occurrence      Volume     Depth
  Node                 Flooded       LPS   days hr:min    10^6 ltr    Meters
  --------------------------------------------------------------------------
  WS02006248              0.07     14.74      0  03:03       0.002     0.000
  WS02006249              1.46    225.98      0  03:00       0.433     0.000
  WS02006256              4.29    831.09      0  03:02       7.180     0.000
  YS02001779              2.71    694.06      0  03:14       2.097     0.000
  YS02001890              0.34    164.36      0  03:01       0.085     0.000
  YS02001907              0.75    686.56      0  03:01       1.005     0.000
  YS02001644              3.77   1525.50      0  03:01       8.498     0.000
  YS02001649              0.03     46.48      0  02:43       0.001     0.000
  YS02001625              1.41    407.34      0  03:01       0.855     0.000
  YS02001790              0.01    206.26      0  04:46       0.000     0.000
  JK-storage              0.64    550.77      0  02:23       0.684     0.000
  XR-storage              3.46    644.68      0  03:01       2.615     0.000
  
  
  **********************
  Storage Volume Summary
  **********************
  
  --------------------------------------------------------------------------------------------------
                         Average     Avg  Evap Exfil       Maximum     Max    Time of Max    Maximum
                          Volume    Pcnt  Pcnt  Pcnt        Volume    Pcnt     Occurrence    Outflow
  Storage Unit           1000 m3    Full  Loss  Loss       1000 m3    Full    days hr:min        LPS
  --------------------------------------------------------------------------------------------------
  JK-storage               0.126      43     0     0         0.291     100       0  02:21     983.00
  CC-storage               3.219      21     0     0         4.033      26       0  03:14     400.00
  XR-storage               0.801      87     0     0         0.926     100       0  02:59     380.00
  
  
  ***********************
  Outfall Loading Summary
  ***********************
  
  ---------------------------------------------------------------------------------------------------------------------------------
                         Flow       Avg       Max       Total         Total         Total         Total         Total         Total
                         Freq      Flow      Flow      Volume           COD            SS            TN            TP         NH4-N
  Outfall Node           Pcnt       LPS       LPS    10^6 ltr            kg            kg            kg            kg            kg
  ---------------------------------------------------------------------------------------------------------------------------------
  WSC                   99.98    845.96   1333.92      21.009      2462.465      4269.466       150.637        17.577        90.775
  ---------------------------------------------------------------------------------------------------------------------------------
  System                99.98    845.96   1333.92      21.009      2462.465      4269.466       150.637        17.577        90.775
  
  
  ********************
  Link Flow Summary
  ********************
  
  -----------------------------------------------------------------------------
                                 Maximum  Time of Max   Maximum    Max/    Max/
                                  |Flow|   Occurrence   |Veloc|    Full    Full
  Link                 Type          LPS  days hr:min     m/sec    Flow   Depth
  -----------------------------------------------------------------------------
  WS02003066WSF200     CONDUIT    938.79     0  03:04      3.00    0.16    0.32
  WS02006287WS02006284 CONDUIT    678.85     0  03:02      2.38    0.31    0.39
  WS02006284WS02006280 CONDUIT    680.08     0  03:02      2.62    0.28    0.37
  WS02006280WS02006229 CONDUIT    680.16     0  03:02      3.86    0.15    0.50
  WS02006229WS02006228 CONDUIT    914.06     0  03:03      1.82    3.03    1.00
  WS02006256WS02006235 CONDUIT    288.92     0  00:00      4.23    3.06    1.00
  WS02006253WS02006251 CONDUIT    144.66     0  03:01      0.58    0.43    1.00
  WS02006252WS02006251 CONDUIT    404.33     0  06:44      3.22    1.48    1.00
  WS02006251WS02006249 CONDUIT    426.62     0  06:44      1.11    1.23    1.00
  WS02006249WS02006248 CONDUIT    415.27     0  07:40      1.13    2.27    1.00
  WS02006248WS02006247 CONDUIT    414.39     0  07:40      1.10    0.90    1.00
  WS02006247WS02006245 CONDUIT    414.06     0  07:40      1.08    3.28    1.00
  WS02006245WS02006243 CONDUIT    413.43     0  07:40      1.07    1.22    1.00
  WS02006243WS02006242 CONDUIT    413.13     0  07:40      1.07    0.88    1.00
  WS02006242WS02006240 CONDUIT    413.08     0  07:40      1.07    1.64    1.00
  WS02006240WS02006239 CONDUIT    414.09     0  07:40      1.08    1.30    1.00
  WS02006239WS02006238 CONDUIT    414.29     0  07:40      1.08    1.33    1.00
  WS02006238WS02006235 CONDUIT    415.25     0  07:40      1.45    0.93    1.00
  WS02006235WS02006234 CONDUIT    524.19     0  07:20      1.36    5.53    1.00
  WS02006234WS02006232 CONDUIT    523.22     0  06:44      1.39    1.06    1.00
  WS02006232WS02006231 CONDUIT    522.63     0  07:19      1.36    1.10    1.00
  WS02006231WS02006230 CONDUIT    522.59     0  07:15      1.40    7.93    1.00
  WS02006230WS02006229 CONDUIT    535.62     0  06:44      1.39   11.92    1.00
  WS02006228WS02006109 CONDUIT    914.22     0  03:03      1.82    3.99    1.00
  WS02006116WS02004401 CONDUIT    939.95     0  03:02      1.20    1.30    1.00
  WS02006115WS02006116 CONDUIT    939.62     0  03:02      1.20    1.21    1.00
  WS02006113WS02006111 CONDUIT    915.85     0  03:03      2.61    1.10    1.00
  WS02006112WS02006115 CONDUIT    939.35     0  03:02      1.20    0.55    1.00
  WS02006111WS02006112 CONDUIT    916.13     0  03:02      1.82    0.44    1.00
  WS02006110WS02006113 CONDUIT    915.61     0  03:03      1.82    0.83    1.00
  WS02006109WS02006110 CONDUIT    915.66     0  03:03      1.82    1.76    1.00
  WS02004411WS02004412 CONDUIT    937.53     0  03:03      1.24    1.33    0.92
  WS02004401WS02004402 CONDUIT    940.10     0  03:02      1.20    1.13    1.00
  WS02004413WS02003067 CONDUIT    938.07     0  03:04      1.55    0.40    0.72
  WS02004412WS02004413 CONDUIT    938.01     0  03:04      1.22    0.63    0.95
  WS02004410WS02004411 CONDUIT    937.77     0  03:03      1.23    1.28    0.94
  WS02004409WS02004410 CONDUIT    938.35     0  03:03      1.22    1.21    0.95
  WS02004407WS02004409 CONDUIT    939.57     0  03:02      1.67    0.33    0.68
  WS02004406WS02004407 CONDUIT    940.16     0  03:02      1.60    0.42    0.70
  WS02004405WS02004406 CONDUIT    940.23     0  03:02      1.20    1.85    1.00
  WS02004404WS02004405 CONDUIT    942.46     0  03:02      1.20    9.23    1.00
  WS02004403WS02004404 CONDUIT    940.04     0  03:02      1.20    0.68    1.00
  WS02004402WS02004403 CONDUIT    939.89     0  03:02      1.20    1.35    1.00
  WS02004139WS02001211 CONDUIT    384.55     0  03:17      0.90    0.49    0.64
  WS02004138WS02004139 CONDUIT    395.52     0  00:00      3.64    0.08    0.47
  WS02003067WS02003066 CONDUIT    938.62     0  03:04      1.65    0.30    0.50
  WS02001213WS02003059 CONDUIT    405.29     0  03:15      0.89    0.67    0.87
  WS02001212WS02001213 CONDUIT    400.47     0  03:16      1.32    0.62    0.56
  WS02001211WS02001212 CONDUIT    396.51     0  03:16      0.78    0.30    0.71
  WS02003072WS02003073 CONDUIT   1331.90     0  03:06      1.96    2.88    0.58
  WS02003069WS02003072 CONDUIT   1331.75     0  03:05      1.82    0.64    0.62
  WS02003060WS02003069 CONDUIT   1331.74     0  03:05      2.03    0.52    0.56
  WS02003059WS02003060 CONDUIT    411.23     0  03:16      0.95    0.27    0.77
  HS02004901HS02004770 CONDUIT     37.23     0  03:01      0.10    0.14    0.53
  HS02004876HS02004881 CONDUIT    127.63     0  03:01      1.21    1.36    0.15
  HS02004870HS02004876 CONDUIT    103.08     0  03:01      0.82    0.07    0.18
  HS02004842HS02004848 CONDUIT     16.84     0  03:01      0.07    0.01    0.33
  HS02004837HS02004842 CONDUIT     17.91     0  03:03      0.42    0.01    0.35
  HS02004830HS02004837 CONDUIT     64.64     0  03:01      0.67    0.06    0.14
  HS02004824HS02004830 CONDUIT     64.12     0  03:02      0.62    0.08    0.16
  HS02004817HS02004824 CONDUIT    123.86     0  03:01      0.31    0.06    0.58
  HS02004770HS02004777 CONDUIT    184.97     0  03:01      0.49    0.34    0.54
  HS02004799HS02004480 CONDUIT    444.31     0  03:01      1.07    0.56    0.60
  HS02004792HS02004799 CONDUIT    408.43     0  03:01      1.20    0.25    0.49
  HS02004788HS02004792 CONDUIT    232.93     0  03:02      1.28    0.15    0.26
  HS02004785HS02004788 CONDUIT    181.76     0  03:02      0.91    1.37    0.29
  HS02004777HS02004785 CONDUIT    182.04     0  03:01      0.57    0.22    0.45
  HS02004480HS02004478 CONDUIT    517.28     0  03:01      1.55    2.18    0.48
  HS02004479HS02004480 CONDUIT     77.29     0  03:02      0.30    0.07    0.57
  HS02004862HS02004870 CONDUIT     79.02     0  03:01      0.80    0.09    0.14
  HS02004848HS02004852 CONDUIT     37.84     0  03:01      0.53    0.04    0.10
  HS02004856HS02004862 CONDUIT     54.76     0  03:01      0.59    0.05    0.13
  HS02004852HS02004856 CONDUIT     37.75     0  03:02      0.34    0.04    0.16
  HS02004802HS02004478 CONDUIT    170.17     0  03:04      0.54    0.15    0.48
  HS02004478WS02006287 CONDUIT    677.59     0  03:02      2.11    0.19    0.36
  HS02004817HS02004807 CONDUIT    128.12     0  03:04      0.25    0.08    0.75
  HS02004807HS02004802 CONDUIT    165.32     0  03:04      0.46    0.32    0.53
  YS02001759YS02001757 CONDUIT    619.70     0  02:43      0.79    0.44    1.00
  YS02001762YS02001759 CONDUIT    313.42     0  02:43      0.40    0.36    1.00
  YS02001765YS02001762 CONDUIT    313.35     0  02:43      0.40    0.29    1.00
  YS02001770YS02001767 CONDUIT    314.04     0  02:43      0.40    1.24    1.00
  YS02001774YS02001770 CONDUIT    694.06     0  03:14      0.88    0.44    1.00
  YS02001779YS02001774 CONDUIT    694.06     0  03:14      0.88    0.35    1.00
  YS02001649YS02001757 CONDUIT    877.62     0  02:39      1.12    0.53    1.00
  YS02001767YS02001765 CONDUIT    314.19     0  02:43      0.40    0.40    1.00
  YS02006561YS02001783 CONDUIT   1044.25     0  02:49      2.15    0.54    1.00
  YS02001783YS02001784 CONDUIT   1043.80     0  02:49      2.08    1.44    1.00
  YS02001784YS02001785 CONDUIT   1044.45     0  02:49      2.08    2.43    1.00
  YS02001788YS02001790 CONDUIT   1044.90     0  02:49      2.44    0.77    1.00
  YS02001790YS02001791 CONDUIT   1044.99     0  02:49      2.91    1.14    1.00
  YS02001791YS02001793 CONDUIT   1045.63     0  02:49      5.77    0.45    1.00
  YS02001910YS02001907 CONDUIT    579.58     0  03:02      0.74    0.33    1.00
  YS02001786YS02001788 CONDUIT   1044.22     0  02:49      2.31    2.01    1.00
  YS02001915YS02001910 CONDUIT    579.41     0  03:02      0.74    0.29    1.00
  YS02001918YS02001915 CONDUIT    265.12     0  02:50      0.44    0.15    1.00
  YS02001923YS02001920 CONDUIT    261.54     0  02:50      0.75    0.12    1.00
  YS02001926YS02001923 CONDUIT    228.88     0  02:50      0.86    0.33    0.94
  YS02001929YS02001926 CONDUIT    197.86     0  03:02      0.92    0.09    0.83
  YS02001920YS02001918 CONDUIT    264.79     0  02:50      0.72    0.26    1.00
  YS02001629YS02163301 CONDUIT    209.34     0  02:32      0.27    0.26    1.00
  YS02001619YS02001622 CONDUIT    381.16     0  03:01      0.59    0.56    1.00
  YS02001622YS02001625 CONDUIT    381.02     0  03:01      0.49    0.20    1.00
  YS02001625YS02001629 CONDUIT    196.75     0  02:39      0.25    0.09    1.00
  YS02163301YS02001633 CONDUIT    213.04     0  02:32      0.27    0.20    1.00
  YS02163601YS02164001 CONDUIT    413.13     0  02:39      0.53    0.37    1.00
  YS02164001YS02001641 CONDUIT    412.44     0  02:39      0.53    0.56    1.00
  YS02001641YS02001644 CONDUIT    412.97     0  02:38      0.53    1.33    1.00
  YS02001647YS02001649 CONDUIT    791.36     0  03:15      1.01    0.42    1.00
  YS02006553YS02006556 CONDUIT    708.60     0  03:45      0.90    0.61    1.00
  YS02006556YS02006558 CONDUIT    709.18     0  03:46      0.90    0.56    1.00
  YSB6556YSB1171       CONDUIT     42.82     0  03:02      0.13    0.04    0.82
  YS02001907YS02006553 CONDUIT    708.88     0  03:46      0.79    0.83    1.00
  YS02006558YS02006561 CONDUIT   1044.12     0  02:49      3.69    2.31    1.00
  YS02001633YS02163601 CONDUIT    413.05     0  02:39      0.53    0.43    1.00
  YS02001644YS02001647 CONDUIT    791.37     0  03:15      1.01    0.46    1.00
  YS02001745YS02001748 CONDUIT    583.34     0  02:32      1.45    0.22    0.98
  YS02001748YS02001751 CONDUIT    442.07     0  03:01      1.03    0.22    1.00
  YS02001751YS02001754 CONDUIT    442.69     0  03:01      0.88    0.21    1.00
  YS02001754YS02001757 CONDUIT    442.61     0  03:01      0.56    0.18    1.00
  YS02001882YS02001884 CONDUIT     22.03     0  04:16      0.12    0.03    1.00
  YS02001884YS02001887 CONDUIT     28.72     0  04:15      0.08    0.04    1.00
  YS02001890YS02001895 CONDUIT    517.56     0  03:03      0.66    0.24    1.00
  YS02001895YS02001898 CONDUIT    517.76     0  03:02      0.66    0.90    1.00
  YS02001898YS02001901 CONDUIT    517.64     0  03:02      0.66    0.33    1.00
  YS02001901YS02001904 CONDUIT    517.94     0  03:02      0.66    0.80    1.00
  YS02001904YS02001907 CONDUIT    517.78     0  03:02      0.66    0.18    1.00
  YS02001887YS02001890 CONDUIT    680.80     0  03:01      0.87    1.17    1.00
  YS02001652YS02001649 CONDUIT    499.39     0  03:01      0.64    0.25    1.00
  YS02001655YS02001652 CONDUIT    499.03     0  03:01      0.94    0.24    1.00
  YS02001658YS02001655 CONDUIT    498.69     0  03:01      1.18    0.21    1.00
  YS02001661YS02001658 CONDUIT    580.01     0  02:29      1.52    0.23    1.00
  YS02001664YS02001661 CONDUIT    671.20     0  02:42      1.43    0.21    0.77
  YSB1154YSB6556       CONDUIT     43.26     0  03:01      0.18    0.08    0.73
  YSB1174YSB1171       CONDUIT     36.64     0  03:01      0.11    0.06    0.85
  YSB1171HS02004479    CONDUIT     75.44     0  03:02      0.54    0.05    0.68
  HS02004881HS02006253 CONDUIT    140.47     0  03:01      2.18    0.03    0.54
  YS02001793JiankangQianchi CONDUIT   1045.21     0  02:49     16.74    0.08    1.00
  YS02001757CaochengTiaoxuchi CONDUIT   1679.88     0  02:40      2.17    0.74    1.00
  WSF200WS02003060     CONDUIT    939.10     0  03:04      1.93    0.21    0.45
  1                    CONDUIT   1333.92     0  03:07      3.59    0.46    0.48
  CC-Pump-1            PUMP       200.00     0  03:20              1.00
  CC-Pump-2            PUMP       200.00     0  03:30              1.00
  JK-Pump-1            PUMP       300.00     0  00:00              1.00
  JK-Pump-2            PUMP       683.00     0  02:40              1.00
  XR-Pump-1            PUMP        95.00     0  00:00              1.00
  XR-Pump-2            PUMP        95.00     0  00:00              1.00
  XR-Pump-3            PUMP        95.00     0  00:00              1.00
  XR-Pump-4            PUMP        95.00     0  00:00              1.00
  
  
  ***************************
  Flow Classification Summary
  ***************************
  
  -------------------------------------------------------------------------------------
                      Adjusted    ---------- Fraction of Time in Flow Class ---------- 
                       /Actual         Up    Down  Sub   Sup   Up    Down  Norm  Inlet 
  Conduit               Length    Dry  Dry   Dry   Crit  Crit  Crit  Crit  Ltd   Ctrl  
  -------------------------------------------------------------------------------------
  WS02003066WSF200        1.00   0.01  0.02  0.00  0.00  0.97  0.00  0.00  0.51  0.00
  WS02006287WS02006284    1.00   0.03  0.01  0.00  0.66  0.30  0.00  0.00  0.65  0.00
  WS02006284WS02006280    1.00   0.04  0.00  0.00  0.00  0.00  0.00  0.96  0.00  0.00
  WS02006280WS02006229    1.00   0.04  0.00  0.00  0.01  0.02  0.00  0.93  0.01  0.00
  WS02006229WS02006228    1.00   0.00  0.00  0.00  1.00  0.00  0.00  0.00  0.00  0.00
  WS02006256WS02006235    1.00   0.00  0.00  0.00  1.00  0.00  0.00  0.00  0.00  0.00
  WS02006253WS02006251    1.00   0.02  0.02  0.00  0.96  0.00  0.00  0.00  0.00  0.00
  WS02006252WS02006251    1.00   0.17  0.00  0.00  0.16  0.00  0.67  0.00  0.00  0.00
  WS02006251WS02006249    1.00   0.00  0.00  0.00  1.00  0.00  0.00  0.00  0.22  0.00
  WS02006249WS02006248    1.00   0.00  0.01  0.00  0.92  0.00  0.07  0.00  0.00  0.00
  WS02006248WS02006247    1.00   0.01  0.00  0.00  0.99  0.00  0.00  0.00  0.13  0.00
  WS02006247WS02006245    1.00   0.00  0.00  0.00  1.00  0.00  0.00  0.00  0.00  0.00
  WS02006245WS02006243    1.00   0.00  0.00  0.00  0.96  0.00  0.00  0.03  0.00  0.00
  WS02006243WS02006242    1.00   0.00  0.00  0.00  1.00  0.00  0.00  0.00  0.22  0.00
  WS02006242WS02006240    1.00   0.00  0.00  0.00  1.00  0.00  0.00  0.00  0.00  0.00
  WS02006240WS02006239    1.00   0.00  0.00  0.00  0.95  0.00  0.00  0.05  0.01  0.00
  WS02006239WS02006238    1.00   0.00  0.00  0.00  1.00  0.00  0.00  0.00  0.13  0.00
  WS02006238WS02006235    1.00   0.00  0.00  0.00  1.00  0.00  0.00  0.00  0.00  0.00
  WS02006235WS02006234    1.00   0.00  0.00  0.00  0.96  0.00  0.04  0.00  0.00  0.00
  WS02006234WS02006232    1.00   0.00  0.00  0.00  1.00  0.00  0.00  0.00  0.09  0.00
  WS02006232WS02006231    1.00   0.00  0.00  0.00  1.00  0.00  0.00  0.00  0.00  0.00
  WS02006231WS02006230    1.00   0.00  0.00  0.00  0.82  0.00  0.17  0.00  0.00  0.00
  WS02006230WS02006229    1.00   0.00  0.00  0.00  1.00  0.00  0.00  0.00  0.00  0.00
  WS02006228WS02006109    1.00   0.00  0.00  0.00  1.00  0.00  0.00  0.00  0.00  0.00
  WS02006116WS02004401    1.00   0.01  0.00  0.00  0.99  0.00  0.00  0.00  0.00  0.00
  WS02006115WS02006116    1.00   0.01  0.00  0.00  0.99  0.00  0.00  0.00  0.00  0.00
  WS02006113WS02006111    1.00   0.01  0.00  0.00  0.04  0.96  0.00  0.00  0.15  0.00
  WS02006112WS02006115    1.00   0.01  0.00  0.00  0.99  0.00  0.00  0.00  0.00  0.00
  WS02006111WS02006112    1.00   0.01  0.00  0.00  0.99  0.00  0.00  0.00  0.86  0.00
  WS02006110WS02006113    1.00   0.00  0.00  0.00  0.99  0.00  0.00  0.00  0.00  0.00
  WS02006109WS02006110    1.00   0.00  0.00  0.00  0.99  0.00  0.00  0.00  0.00  0.00
  WS02004411WS02004412    1.00   0.02  0.00  0.00  0.98  0.00  0.00  0.00  0.00  0.00
  WS02004401WS02004402    1.00   0.01  0.00  0.00  0.99  0.00  0.00  0.00  0.00  0.00
  WS02004413WS02003067    1.00   0.02  0.01  0.00  0.00  0.00  0.98  0.00  0.00  0.00
  WS02004412WS02004413    1.00   0.02  0.00  0.00  0.98  0.00  0.00  0.00  0.01  0.00
  WS02004410WS02004411    1.00   0.02  0.00  0.00  0.98  0.00  0.00  0.00  0.00  0.00
  WS02004409WS02004410    1.00   0.02  0.00  0.00  0.98  0.00  0.00  0.00  0.02  0.00
  WS02004407WS02004409    1.00   0.02  0.00  0.00  0.98  0.00  0.00  0.00  0.95  0.00
  WS02004406WS02004407    1.00   0.00  0.01  0.00  0.98  0.00  0.00  0.00  0.00  0.00
  WS02004405WS02004406    1.00   0.00  0.00  0.00  1.00  0.00  0.00  0.00  0.00  0.00
  WS02004404WS02004405    1.00   0.00  0.00  0.00  1.00  0.00  0.00  0.00  0.00  0.00
  WS02004403WS02004404    1.00   0.00  0.01  0.00  0.99  0.00  0.00  0.00  0.00  0.00
  WS02004402WS02004403    1.00   0.01  0.00  0.00  0.99  0.00  0.00  0.00  0.00  0.00
  WS02004139WS02001211    1.00   0.00  0.00  0.00  1.00  0.00  0.00  0.00  0.00  0.00
  WS02004138WS02004139    1.00   0.00  0.00  0.00  1.00  0.00  0.00  0.00  1.00  0.00
  WS02003067WS02003066    1.00   0.02  0.00  0.00  0.97  0.00  0.00  0.00  0.00  0.00
  WS02001213WS02003059    1.00   0.00  0.00  0.00  1.00  0.00  0.00  0.00  0.00  0.00
  WS02001212WS02001213    1.00   0.00  0.00  0.00  0.92  0.00  0.07  0.00  0.00  0.00
  WS02001211WS02001212    1.00   0.00  0.00  0.00  1.00  0.00  0.00  0.00  0.00  0.00
  WS02003072WS02003073    1.00   0.00  0.00  0.00  0.00  0.00  0.00  1.00  0.00  0.00
  WS02003069WS02003072    1.00   0.00  0.00  0.00  1.00  0.00  0.00  0.00  0.13  0.00
  WS02003060WS02003069    1.00   0.00  0.00  0.00  0.99  0.01  0.00  0.00  0.10  0.00
  WS02003059WS02003060    1.00   0.00  0.00  0.00  1.00  0.00  0.00  0.00  0.01  0.00
  HS02004901HS02004770    1.00   0.04  0.00  0.00  0.96  0.00  0.00  0.00  0.00  0.00
  HS02004876HS02004881    1.00   0.01  0.00  0.00  0.91  0.08  0.00  0.00  0.00  0.00
  HS02004870HS02004876    1.00   0.00  0.00  0.00  0.99  0.00  0.00  0.00  0.95  0.00
  HS02004842HS02004848    1.00   0.00  0.04  0.00  0.96  0.00  0.00  0.00  0.54  0.00
  HS02004837HS02004842    1.00   0.00  0.00  0.00  1.00  0.00  0.00  0.00  0.11  0.00
  HS02004830HS02004837    1.00   0.00  0.00  0.00  1.00  0.00  0.00  0.00  0.99  0.00
  HS02004824HS02004830    1.00   0.00  0.00  0.00  1.00  0.00  0.00  0.00  0.01  0.00
  HS02004817HS02004824    1.00   0.00  0.00  0.00  1.00  0.00  0.00  0.00  0.97  0.00
  HS02004770HS02004777    1.00   0.00  0.04  0.00  0.96  0.00  0.00  0.00  0.03  0.00
  HS02004799HS02004480    1.00   0.00  0.01  0.00  0.96  0.00  0.03  0.00  0.00  0.00
  HS02004792HS02004799    1.00   0.00  0.00  0.00  1.00  0.00  0.00  0.00  0.98  0.00
  HS02004788HS02004792    1.00   0.00  0.00  0.00  1.00  0.00  0.00  0.00  0.98  0.00
  HS02004785HS02004788    1.00   0.00  0.00  0.00  1.00  0.00  0.00  0.00  0.00  0.00
  HS02004777HS02004785    1.00   0.00  0.00  0.00  1.00  0.00  0.00  0.00  0.12  0.00
  HS02004480HS02004478    1.00   0.04  0.00  0.00  0.72  0.00  0.00  0.25  0.00  0.00
  HS02004479HS02004480    1.00   0.01  0.00  0.00  0.99  0.00  0.00  0.00  0.12  0.00
  HS02004862HS02004870    1.00   0.00  0.00  0.00  1.00  0.00  0.00  0.00  0.04  0.00
  HS02004848HS02004852    1.00   0.04  0.00  0.00  0.96  0.00  0.00  0.00  0.64  0.00
  HS02004856HS02004862    1.00   0.00  0.05  0.00  0.95  0.00  0.00  0.00  0.83  0.00
  HS02004852HS02004856    1.00   0.04  0.00  0.00  0.96  0.00  0.00  0.00  0.80  0.00
  HS02004802HS02004478    1.00   0.04  0.00  0.00  0.96  0.00  0.00  0.00  0.02  0.00
  HS02004478WS02006287    1.00   0.04  0.00  0.00  0.77  0.19  0.00  0.00  0.65  0.00
  HS02004817HS02004807    1.00   0.00  0.04  0.00  0.96  0.00  0.00  0.00  0.01  0.00
  HS02004807HS02004802    1.00   0.04  0.00  0.00  0.96  0.00  0.00  0.00  0.00  0.00
  YS02001759YS02001757    1.00   0.00  0.00  0.00  1.00  0.00  0.00  0.00  0.16  0.00
  YS02001762YS02001759    1.00   0.00  0.00  0.00  1.00  0.00  0.00  0.00  0.03  0.00
  YS02001765YS02001762    1.00   0.00  0.00  0.00  1.00  0.00  0.00  0.00  0.14  0.00
  YS02001770YS02001767    1.00   0.00  0.00  0.00  1.00  0.00  0.00  0.00  0.00  0.00
  YS02001774YS02001770    1.00   0.00  0.04  0.00  0.96  0.00  0.00  0.00  0.03  0.00
  YS02001779YS02001774    1.00   0.00  0.00  0.00  1.00  0.00  0.00  0.00  0.19  0.00
  YS02001649YS02001757    1.00   0.00  0.00  0.00  1.00  0.00  0.00  0.00  0.16  0.00
  YS02001767YS02001765    1.00   0.00  0.00  0.00  1.00  0.00  0.00  0.00  0.00  0.00
  YS02006561YS02001783    1.00   0.05  0.00  0.00  0.31  0.64  0.00  0.00  0.46  0.00
  YS02001783YS02001784    1.00   0.00  0.05  0.00  0.95  0.00  0.00  0.00  0.00  0.00
  YS02001784YS02001785    1.00   0.00  0.00  0.00  1.00  0.00  0.00  0.00  0.18  0.00
  YS02001788YS02001790    1.00   0.00  0.00  0.00  0.38  0.62  0.00  0.00  0.38  0.00
  YS02001790YS02001791    1.00   0.00  0.00  0.00  0.35  0.65  0.00  0.00  0.47  0.00
  YS02001791YS02001793    1.00   0.00  0.00  0.00  0.37  0.63  0.00  0.00  0.02  0.00
  YS02001910YS02001907    1.00   0.00  0.00  0.00  0.99  0.00  0.00  0.01  0.12  0.00
  YS02001786YS02001788    1.00   0.00  0.00  0.00  0.37  0.63  0.00  0.00  0.00  0.00
  YS02001915YS02001910    1.00   0.00  0.00  0.00  0.99  0.01  0.00  0.00  0.16  0.00
  YS02001918YS02001915    1.00   0.00  0.00  0.00  0.99  0.01  0.00  0.00  0.54  0.00
  YS02001923YS02001920    1.00   0.00  0.00  0.00  1.00  0.00  0.00  0.00  0.82  0.00
  YS02001926YS02001923    1.00   0.00  0.02  0.00  0.15  0.00  0.83  0.00  0.00  0.00
  YS02001929YS02001926    1.00   0.00  0.04  0.00  0.96  0.00  0.00  0.00  0.74  0.00
  YS02001920YS02001918    1.00   0.00  0.00  0.00  1.00  0.00  0.00  0.00  0.00  0.00
  YS02001629YS02163301    1.00   0.04  0.00  0.00  0.96  0.00  0.00  0.00  0.00  0.00
  YS02001619YS02001622    1.00   0.04  0.00  0.00  0.96  0.00  0.00  0.00  0.00  0.00
  YS02001622YS02001625    1.00   0.04  0.00  0.00  0.96  0.00  0.00  0.00  0.05  0.00
  YS02001625YS02001629    1.00   0.04  0.02  0.00  0.93  0.00  0.02  0.00  0.00  0.00
  YS02163301YS02001633    1.00   0.00  0.04  0.00  0.96  0.00  0.00  0.00  0.00  0.00
  YS02163601YS02164001    1.00   0.00  0.02  0.00  0.98  0.00  0.00  0.00  0.00  0.00
  YS02164001YS02001641    1.00   0.00  0.02  0.00  0.98  0.00  0.00  0.00  0.06  0.00
  YS02001641YS02001644    1.00   0.00  0.00  0.00  1.00  0.00  0.00  0.00  0.00  0.00
  YS02001647YS02001649    1.00   0.00  0.05  0.00  0.95  0.00  0.00  0.00  0.01  0.00
  YS02006553YS02006556    1.00   0.01  0.00  0.00  0.99  0.00  0.00  0.00  0.03  0.00
  YS02006556YS02006558    1.00   0.00  0.00  0.00  1.00  0.00  0.00  0.00  0.00  0.00
  YSB6556YSB1171          1.00   0.01  0.02  0.00  0.97  0.00  0.00  0.00  0.00  0.00
  YS02001907YS02006553    1.00   0.00  0.01  0.00  0.99  0.00  0.00  0.00  0.00  0.00
  YS02006558YS02006561    1.00   0.05  0.00  0.00  0.15  0.80  0.00  0.00  0.45  0.00
  YS02001633YS02163601    1.00   0.00  0.00  0.00  1.00  0.00  0.00  0.00  0.15  0.00
  YS02001644YS02001647    1.00   0.00  0.05  0.00  0.95  0.00  0.00  0.00  0.00  0.00
  YS02001745YS02001748    1.00   0.00  0.00  0.00  0.91  0.00  0.00  0.09  0.04  0.00
  YS02001748YS02001751    1.00   0.00  0.00  0.00  0.97  0.03  0.00  0.00  0.15  0.00
  YS02001751YS02001754    1.00   0.00  0.00  0.00  0.94  0.00  0.00  0.06  0.02  0.00
  YS02001754YS02001757    1.00   0.00  0.00  0.00  1.00  0.00  0.00  0.00  0.18  0.00
  YS02001882YS02001884    1.00   0.04  0.00  0.00  0.96  0.00  0.00  0.00  0.00  0.00
  YS02001884YS02001887    1.00   0.02  0.01  0.00  0.97  0.00  0.00  0.00  0.00  0.00
  YS02001890YS02001895    1.00   0.00  0.04  0.00  0.96  0.00  0.00  0.00  0.00  0.00
  YS02001895YS02001898    1.00   0.04  0.00  0.00  0.95  0.00  0.01  0.00  0.00  0.00
  YS02001898YS02001901    1.00   0.04  0.00  0.00  0.96  0.00  0.00  0.00  0.01  0.00
  YS02001901YS02001904    1.00   0.04  0.00  0.00  0.96  0.00  0.00  0.00  0.00  0.00
  YS02001904YS02001907    1.00   0.00  0.04  0.00  0.96  0.00  0.00  0.00  0.00  0.00
  YS02001887YS02001890    1.00   0.00  0.00  0.00  0.99  0.00  0.01  0.00  0.00  0.00
  YS02001652YS02001649    1.00   0.00  0.00  0.00  1.00  0.00  0.00  0.00  0.17  0.00
  YS02001655YS02001652    1.00   0.00  0.00  0.00  0.94  0.00  0.00  0.05  0.02  0.00
  YS02001658YS02001655    1.00   0.00  0.04  0.00  0.93  0.03  0.00  0.00  0.10  0.00
  YS02001661YS02001658    1.00   0.04  0.00  0.00  0.91  0.05  0.00  0.00  0.11  0.00
  YS02001664YS02001661    1.00   0.04  0.00  0.00  0.92  0.04  0.00  0.00  0.20  0.00
  YSB1154YSB6556          1.00   0.03  0.00  0.00  0.97  0.00  0.00  0.00  0.02  0.00
  YSB1174YSB1171          1.00   0.02  0.01  0.00  0.97  0.00  0.00  0.00  0.00  0.00
  YSB1171HS02004479       1.00   0.01  0.00  0.00  0.98  0.00  0.00  0.00  0.10  0.00
  HS02004881HS02006253    1.00   0.02  0.00  0.00  0.83  0.01  0.00  0.14  0.65  0.00
  YS02001793JiankangQianchi    1.00   0.00  0.00  0.00  0.60  0.40  0.00  0.00  0.39  0.00
  YS02001757CaochengTiaoxuchi    1.00   0.00  0.07  0.00  0.93  0.00  0.00  0.00  0.00  0.00
  WSF200WS02003060        1.00   0.00  0.01  0.00  0.99  0.00  0.00  0.00  0.30  0.00
  1                       1.00   0.00  0.00  0.00  0.00  1.00  0.00  0.00  0.52  0.00
  
  
  *************************
  Conduit Surcharge Summary
  *************************
  
  ----------------------------------------------------------------------------
                                                           Hours        Hours 
                         --------- Hours Full --------   Above Full   Capacity
  Conduit                Both Ends  Upstream  Dnstream   Normal Flow   Limited
  ----------------------------------------------------------------------------
  WS02006229WS02006228        4.59      4.68      4.59      5.52         4.59
  WS02006256WS02006235        6.18      6.19      6.84      4.63         0.01
  WS02006253WS02006251        2.59      2.59      2.70      0.01         0.01
  WS02006252WS02006251        2.15      2.15      3.05      2.55         0.01
  WS02006251WS02006249        2.61      2.62      2.72      1.65         1.42
  WS02006249WS02006248        2.62      2.62      2.72      4.53         0.01
  WS02006248WS02006247        2.71      2.71      3.06      0.01         0.01
  WS02006247WS02006245        3.02      3.12      3.02      4.80         2.87
  WS02006245WS02006243        3.07      3.09      3.26      0.53         0.55
  WS02006243WS02006242        3.34      3.34      4.16      0.01         0.01
  WS02006242WS02006240        3.97      3.97      4.27      2.93         0.01
  WS02006240WS02006239        3.99      4.01      4.04      1.50         1.04
  WS02006239WS02006238        4.17      4.23      4.23      1.75         1.30
  WS02006238WS02006235        4.19      4.19      4.36      0.01         0.02
  WS02006235WS02006234        3.94      3.94      4.14      6.03         0.01
  WS02006234WS02006232        4.04      4.04      4.41      1.52         1.47
  WS02006232WS02006231        2.70      2.70      4.41      1.81         0.01
  WS02006231WS02006230        2.19      2.19      2.79      6.18         0.01
  WS02006230WS02006229        5.08      5.33      5.08      6.26         5.08
  WS02006228WS02006109        4.63      4.90      4.63      5.95         4.63
  WS02006116WS02004401        0.44      0.44      0.44      0.38         0.39
[...]
  YS02001770YS02001767        5.69      5.69      5.70      0.38         0.73
  YS02001774YS02001770        5.68      5.68      5.74      0.01         0.01
  YS02001779YS02001774        5.56      5.56      5.74      0.01         0.01
  YS02001649YS02001757        5.75      5.75      5.86      0.01         0.01
  YS02001767YS02001765        5.70      5.70      5.72      0.01         0.01
  YS02006561YS02001783        0.90      0.90      1.49      0.01         0.01
  YS02001783YS02001784        1.46      1.49      1.47      1.46         1.29
  YS02001784YS02001785        1.37      1.47      1.37      2.50         1.37
  YS02001788YS02001790        1.22      1.22      2.01      0.01         0.01
  YS02001790YS02001791        2.01      2.01      2.10      1.17         1.15
  YS02001791YS02001793        2.10      2.10      2.44      0.01         0.01
  YS02001910YS02001907        1.28      1.28      1.91      0.01         0.01
  YS02001786YS02001788        1.22      1.37      1.22      2.05         1.22
  YS02001915YS02001910        1.08      1.08      1.28      0.01         0.01
  YS02001918YS02001915        0.88      0.88      1.08      0.01         0.01
  YS02001923YS02001920        0.74      0.74      0.91      0.01         0.01
  YS02001920YS02001918        0.88      0.88      0.91      0.01         0.01
  YS02001629YS02163301        5.67      5.67      5.69      0.01         0.01
  YS02001619YS02001622        5.37      5.37      5.41      0.01         0.01
  YS02001622YS02001625        5.41      5.41      5.64      0.01         0.01
  YS02001625YS02001629        5.39      5.39      5.64      0.01         0.01
  YS02163301YS02001633        5.69      5.69      5.72      0.01         0.01
  YS02163601YS02164001        5.72      5.72      5.75      0.01         0.01
  YS02164001YS02001641        5.72      5.72      5.73      0.01         0.02
  YS02001641YS02001644        5.73      5.73      5.73      1.72         1.91
  YS02001647YS02001649        5.62      5.62      5.75      0.01         0.01
  YS02006553YS02006556        1.50      1.50      1.98      0.01         0.01
  YS02006556YS02006558        1.68      1.68      2.06      0.01         0.01
  YSB6556YSB1171              0.01      0.01      0.07      0.01         0.01
  YS02001907YS02006553        2.52      2.52      2.74      0.01         0.01
  YS02006558YS02006561        1.02      1.46      1.02      2.35         1.02
  YS02001633YS02163601        5.71      5.71      5.75      0.01         0.01
  YS02001644YS02001647        5.62      5.62      5.73      0.01         0.01
  YS02001745YS02001748        0.01      0.01      5.22      0.01         0.01
  YS02001748YS02001751        5.27      5.27      5.38      0.01         0.01
  YS02001751YS02001754        5.38      5.38      5.58      0.01         0.01
  YS02001754YS02001757        5.62      5.62      5.86      0.01         0.01
  YS02001882YS02001884        1.11      1.11      1.14      0.01         0.01
  YS02001884YS02001887        1.19      1.19      1.21      0.01         0.01
  YS02001890YS02001895        1.07      1.07      1.30      0.01         0.01
  YS02001895YS02001898        1.06      1.06      1.07      0.01         0.01
  YS02001898YS02001901        1.08      1.08      1.18      0.01         0.01
  YS02001901YS02001904        1.15      1.15      1.18      0.01         0.01
  YS02001904YS02001907        1.15      1.15      2.00      0.01         0.01
  YS02001887YS02001890        1.24      1.24      1.26      0.16         0.01
  YS02001652YS02001649        5.63      5.63      5.75      0.01         0.01
  YS02001655YS02001652        5.39      5.39      5.61      0.01         0.01
  YS02001658YS02001655        5.25      5.25      5.40      0.01         0.01
  YS02001661YS02001658        0.15      0.15      5.25      0.01         0.01
  YS02001664YS02001661        0.01      0.01      1.27      0.01         0.01
  HS02004881HS02006253        0.01      0.01      1.60      0.01         0.01
  YS02001793JiankangQianchi        2.35      2.35      3.84      0.01         0.01
  YS02001757CaochengTiaoxuchi        5.11      5.11      5.86      0.01         0.01
  
  
  ***************
  Pumping Summary
  ***************
  
  ---------------------------------------------------------------------------------------------------------
                                                  Min       Avg       Max     Total     Power    % Time Off
                        Percent   Number of      Flow      Flow      Flow    Volume     Usage    Pump Curve
  Pump                 Utilized   Start-Ups       LPS       LPS       LPS  10^6 ltr     Kw-hr    Low   High
  ---------------------------------------------------------------------------------------------------------
  CC-Pump-1               63.83           1      0.00    192.32    200.00     3.420      3.79    0.0    0.0
  CC-Pump-2               42.55           3      0.00    105.85    200.00     1.620      2.33    0.0    0.0
  JK-Pump-1               63.83           5      0.00    226.27    300.00     4.056     60.98    0.0    0.0
  JK-Pump-2               55.32           4      0.00    396.32    683.00     6.605     87.65    0.0   95.9
  XR-Pump-1              100.00           1      0.00     95.00     95.00     2.679     28.15    0.0    0.0
  XR-Pump-2              100.00           1      0.00     95.00     95.00     2.679     28.15    0.0    0.0
  XR-Pump-3               89.37           2      0.00     92.53     95.00     2.280     19.49    0.0    0.0
  XR-Pump-4               89.37           2      0.00     92.53     95.00     2.280     19.49    0.0    0.0
  
  
  ***************************
  Link Pollutant Load Summary
  ***************************
  
  ------------------------------------------------------------------------------------------
                                 COD            SS            TN            TP         NH4-N
  Link                            kg            kg            kg            kg            kg
  ------------------------------------------------------------------------------------------
  WS02003066WSF200           941.046      1754.897        24.135         2.079        12.636
  WS02006287WS02006284       319.446       608.029        10.315         1.015         5.679
  WS02006284WS02006280       319.919       608.799        10.360         1.021         5.707
  WS02006280WS02006229       319.866       608.687        10.358         1.020         5.706
  WS02006229WS02006228       944.455      1760.442        23.699         2.008        12.332
  WS02006256WS02006235       206.483       382.296         4.537         0.353         2.293
  WS02006253WS02006251        60.562       118.967         1.378         0.106         0.690
  WS02006252WS02006251       420.930       767.067         8.767         0.626         4.302
  WS02006251WS02006249       473.713       872.233         9.972         0.719         4.907
  WS02006249WS02006248       432.136       794.372         9.110         0.657         4.484
  WS02006248WS02006247       431.300       792.888         9.092         0.655         4.475
  WS02006247WS02006245       430.482       791.427         9.074         0.654         4.466
  WS02006245WS02006243       429.675       790.073         9.054         0.652         4.456
  WS02006243WS02006242       428.786       788.497         9.037         0.651         4.448
  WS02006242WS02006240       427.848       786.809         9.023         0.651         4.442
  WS02006240WS02006239       427.371       785.871         9.028         0.652         4.447
  WS02006239WS02006238       427.860       786.510         9.078         0.659         4.479
  WS02006238WS02006235       428.208       786.932         9.106         0.662         4.495
  WS02006235WS02006234       630.146      1161.501        13.470         0.997         6.691
  WS02006234WS02006232       629.181      1159.778        13.455         0.997         6.684
  WS02006232WS02006231       628.181      1158.020        13.431         0.995         6.673
  WS02006231WS02006230       627.171      1156.219        13.411         0.994         6.663
  WS02006230WS02006229       625.693      1153.660        13.373         0.990         6.643
  WS02006228WS02006109       943.103      1758.052        23.669         2.006        12.317
  WS02006116WS02004401       953.755      1777.490        24.439         2.103        12.791
  WS02006115WS02006116       955.408      1780.372        24.485         2.106        12.815
  WS02006113WS02006111       947.559      1764.472        24.376         2.099        12.770
  WS02006112WS02006115       957.086      1783.294        24.537         2.111        12.843
  WS02006111WS02006112       946.901      1763.369        24.359         2.097        12.761
  WS02006110WS02006113       948.547      1766.248        24.405         2.101        12.785
  WS02006109WS02006110       950.163      1769.112        24.455         2.106        12.812
  WS02004411WS02004412       944.448      1760.892        24.251         2.090        12.700
  WS02004401WS02004402       952.245      1774.851        24.393         2.098        12.765
  WS02004413WS02003067       941.759      1756.199        24.153         2.080        12.645
  WS02004412WS02004413       943.223      1758.745        24.212         2.086        12.679
  WS02004410WS02004411       945.493      1762.741        24.282         2.093        12.717
  WS02004409WS02004410       946.559      1764.617        24.316         2.096        12.736
  WS02004407WS02004409       947.467      1766.222        24.341         2.098        12.749
  WS02004406WS02004407       947.762      1766.766        24.345         2.098        12.751
  WS02004405WS02004406       949.236      1769.358        24.400         2.104        12.781
  WS02004404WS02004405       950.203      1771.101        24.405         2.103        12.781
  WS02004403WS02004404       949.802      1770.576        24.318         2.092        12.725
  WS02004402WS02004403       950.917      1772.527        24.354         2.095        12.745
  WS02004139WS02001211      1382.831      2295.947       112.274        13.705        69.207
  WS02004138WS02004139      1389.152      2306.508       112.761        13.764        69.506
  WS02003067WS02003066       941.257      1755.276        24.142         2.080        12.640
  WS02001213WS02003059      1415.614      2347.418       115.683        14.135        71.350
  WS02001212WS02001213      1424.862      2362.743       116.432        14.227        71.811
  WS02001211WS02001212      1427.067      2366.349       116.621        14.250        71.929
  WS02003072WS02003073      2456.155      4260.243       149.776        17.465        90.226
  WS02003069WS02003072      2461.382      4268.819       150.196        17.517        90.486
  WS02003060WS02003069      2464.086      4273.497       150.340        17.533        90.571
  WS02003059WS02003060      1412.324      2341.854       115.448        14.107        71.206
  HS02004901HS02004770        13.094        25.473         0.248         0.019         0.116
  HS02004876HS02004881        45.511        90.337         0.999         0.073         0.491
  HS02004870HS02004876        34.379        68.098         0.798         0.060         0.395
  HS02004842HS02004848         6.456        12.343         0.134         0.009         0.062
  HS02004837HS02004842        11.056        19.635         0.603         0.068         0.356
  HS02004830HS02004837        70.297       122.725         4.643         0.552         2.827
  HS02004824HS02004830        71.068       123.978         4.715         0.561         2.871
  HS02004817HS02004824        97.161       176.400         5.254         0.596         3.135
  HS02004770HS02004777        49.660        97.707         1.021         0.069         0.472
  HS02004799HS02004480       162.308       310.801         4.263         0.379         2.209
  HS02004792HS02004799       147.262       280.095         4.028         0.367         2.105
  HS02004788HS02004792        82.810       157.670         2.665         0.255         1.440
  HS02004785HS02004788        51.116       100.038         1.172         0.089         0.567
  HS02004777HS02004785        50.442        98.934         1.112         0.081         0.530
  HS02004480HS02004478       204.796       395.128         4.971         0.429         2.543
  HS02004479HS02004480        46.125        90.107         1.037         0.091         0.538
  HS02004862HS02004870        25.798        50.335         0.628         0.050         0.314
  HS02004848HS02004852        10.251        19.884         0.210         0.014         0.097
  HS02004856HS02004862        17.523        34.746         0.350         0.023         0.164
  HS02004852HS02004856        10.255        19.888         0.210         0.014         0.097
  HS02004802HS02004478       115.335       214.033         5.398         0.592         3.169
  HS02004478WS02006287       319.658       608.400        10.331         1.017         5.689
  HS02004817HS02004807        95.855       174.303         5.130         0.581         3.057
  HS02004807HS02004802       115.592       214.438         5.430         0.596         3.190
  YS02001759YS02001757       369.810       679.160         7.391         0.513         3.610
  YS02001762YS02001759       182.581       337.069         3.850         0.271         1.903
  YS02001765YS02001762       182.607       337.505         3.871         0.273         1.916
  YS02001770YS02001767       181.852       337.496         3.653         0.241         1.773
  YS02001774YS02001770       245.731       480.891         4.692         0.312         2.265
  YS02001779YS02001774       244.664       478.762         4.770         0.325         2.321
  YS02001649YS02001757       337.290       607.490         6.762         0.469         3.245
  YS02001767YS02001765       183.118       338.798         3.895         0.275         1.929
  YS02006561YS02001783      1026.626      1903.339        21.511         1.605        10.703
  YS02001783YS02001784      1026.492      1903.128        21.506         1.605        10.701
  YS02001784YS02001785      1033.787      1914.800        22.219         1.694        11.147
  YS02001788YS02001790      1034.323      1915.655        22.290         1.703        11.192
  YS02001790YS02001791      1035.283      1917.185        22.389         1.716        11.254
  YS02001791YS02001793      1035.196      1917.048        22.384         1.715        11.251
  YS02001910YS02001907       391.098       721.271         9.385         0.718         4.809
  YS02001786YS02001788      1033.965      1915.089        22.246         1.698        11.164
  YS02001915YS02001910       391.175       721.398         9.338         0.711         4.777
  YS02001918YS02001915       186.153       328.261         5.126         0.467         2.761
  YS02001923YS02001920       165.988       295.794         3.177         0.223         1.542
  YS02001926YS02001923       164.647       293.528         3.103         0.214         1.498
  YS02001929YS02001926       164.221       292.810         3.066         0.210         1.475
  YS02001920YS02001918       185.696       327.293         5.088         0.462         2.738
  YS02001629YS02163301        96.077       169.884         2.028         0.131         0.946
  YS02001619YS02001622       175.883       321.151         3.602         0.236         1.684
  YS02001622YS02001625       174.684       319.242         3.573         0.234         1.671
  YS02001625YS02001629        97.162       171.660         2.052         0.132         0.957
  YS02163301YS02001633        96.412       170.700         2.030         0.132         0.948
  YS02163601YS02164001       405.765       733.223         7.899         0.562         3.784
  YS02164001YS02001641       405.241       732.332         7.879         0.560         3.773
  YS02001641YS02001644       405.301       732.351         7.875         0.560         3.770
  YS02001647YS02001649       432.872       793.745         8.548         0.596         4.076
  YS02006553YS02006556       692.741      1273.842        14.885         1.139         7.491
  YS02006556YS02006558       692.657      1273.676        14.856         1.135         7.471
  YSB6556YSB1171              26.519        51.963         0.537         0.045         0.271
  YS02001907YS02006553       692.854      1274.078        14.893         1.140         7.496
  YS02006558YS02006561      1026.617      1903.323        21.510         1.605        10.703
  YS02001633YS02163601       406.485       734.347         7.880         0.558         3.768
  YS02001644YS02001647       438.847       804.635         8.650         0.603         4.125
  YS02001745YS02001748       249.185       466.099         5.417         0.370         2.682
  YS02001748YS02001751       247.736       463.266         5.486         0.383         2.734
  YS02001751YS02001754       246.909       461.871         5.491         0.385         2.740
  YS02001754YS02001757       247.648       462.971         5.655         0.407         2.847
  YS02001882YS02001884         2.746         4.738         0.056         0.004         0.028
  YS02001884YS02001887         7.102        12.565         0.140         0.011         0.070
  YS02001890YS02001895       451.010       846.538         8.302         0.624         4.050
  YS02001895YS02001898       450.835       846.297         8.296         0.624         4.046
  YS02001898YS02001901       450.609       845.909         8.291         0.623         4.044
  YS02001901YS02001904       450.445       845.670         8.297         0.624         4.048
  YS02001904YS02001907       450.642       845.965         8.350         0.631         4.082
  YS02001887YS02001890       468.336       880.899         8.647         0.653         4.223
  YS02001652YS02001649       198.895       370.168         4.000         0.288         1.876
  YS02001655YS02001652       199.485       371.124         4.015         0.289         1.884
  YS02001658YS02001655       199.023       370.382         3.929         0.278         1.828
  YS02001661YS02001658       201.878       375.450         3.988         0.282         1.855
  YS02001664YS02001661       218.884       403.433         4.371         0.308         2.030
  YSB1154YSB6556              26.084        51.268         0.486         0.038         0.239
  YSB1174YSB1171              18.021        35.561         0.361         0.029         0.181
  YSB1171HS02004479           46.090        90.052         1.040         0.092         0.540
  HS02004881HS02006253        51.667       102.983         1.102         0.079         0.539
  YS02001793JiankangQianchi      1035.886      1918.203        22.415         1.719        11.269
  YS02001757CaochengTiaoxuchi       653.891      1179.024        13.767         0.977         6.755
  WSF200WS02003060           940.772      1754.380        24.133         2.079        12.636
  1                         2462.465      4269.466       150.637        17.577        90.775
  CC-Pump-1                  288.158       525.737         5.993         0.428         2.941
  CC-Pump-2                  132.801       241.380         2.774         0.198         1.361
  JK-Pump-1                  282.631       529.220         5.907         0.445         2.945
  JK-Pump-2                  573.947      1081.241        11.914         0.897         5.933
  XR-Pump-1                  390.971       646.604        32.349         3.960        19.974
  XR-Pump-2                  390.971       646.604        32.349         3.960        19.974
  XR-Pump-3                  305.434       509.671        24.181         2.940        14.872
  XR-Pump-4                  305.434       509.671        24.181         2.940        14.872
  

  Analysis begun on:  Tue Jul 13 19:50:51 2021
  Analysis ended on:  Tue Jul 13 19:50:54 2021
  Total elapsed time: 00:00:03