
  EPA STORM WATER MANAGEMENT MODEL - VERSION 5.1 (Build 5.3.0.dev0)
  --------------------------------------------------------------

  WARNING 04: minimum elevation drop used for Conduit WS02004404WS02004405
  WARNING 03: negative offset ignored for Link YS02001904YS02001907
  
  *********************************************************
  NOTE: The summary statistics displayed in this report are
  based on results found at every computational time step,  
  not just on results from each reporting time step.
  *********************************************************
  
  ****************
  Analysis Options
  ****************
  Flow Units ............... LPS
  Process Models:
    Rainfall/Runoff ........ YES
    RDII ................... NO
    Snowmelt ............... NO
    Groundwater ............ NO
    Flow Routing ........... YES
    Ponding Allowed ........ NO
    Water Quality .......... YES
  Infiltration Method ...... HORTON
  Flow Routing Method ...... DYNWAVE
  Surcharge Method ......... EXTRAN
  Starting Date ............ 08/28/2015 08:00:00
  Ending Date .............. 08/28/2015 15:50:00
  Antecedent Dry Days ...... 8.0
  Report Time Step ......... 00:01:00
  Wet Time Step ............ 00:01:00
  Dry Time Step ............ 00:01:00
  Routing Time Step ........ 5.00 sec
  Variable Time Step ....... YES
  Maximum Trials ........... 8
  Number of Threads ........ 4
  Head Tolerance ........... 0.001500 m
  
  
  **************************        Volume         Depth
  Runoff Quantity Continuity     hectare-m            mm
  **************************     ---------       -------
  Total Precipitation ......         6.144        13.452
  Evaporation Loss .........         0.000         0.000
  Infiltration Loss ........         1.064         2.328
  Surface Runoff ...........         4.147         9.079
  Final Storage ............         0.935         2.047
  Continuity Error (%) .....        -0.020
  
  
  **************************           COD            SS            TN            TP         NH4-N
  Runoff Quality Continuity             kg            kg            kg            kg            kg
  **************************    ----------    ----------    ----------    ----------    ----------
  Initial Buildup ..........     41378.656     70582.865      1804.177       168.684      1032.807
  Surface Buildup ..........        21.799        40.924         2.400         0.218         1.395
  Wet Deposition ...........         0.000         0.000         0.000         0.000         0.000
  Sweeping Removal .........         0.000         0.000         0.000         0.000         0.000
  Infiltration Loss ........        97.311       184.943         1.849         0.130         0.881
  BMP Removal ..............         0.000         0.000         0.000         0.000         0.000
  Surface Runoff ...........      3769.819      7064.251        72.781         4.964        34.599
  Remaining Buildup ........     37531.916     63371.884      1731.919       163.806       998.709
  Continuity Error (%) .....         0.003         0.004         0.002         0.001         0.001
  
  
  **************************        Volume        Volume
  Flow Routing Continuity        hectare-m      10^6 ltr
  **************************     ---------     ---------
  Dry Weather Inflow .......         0.616         6.165
  Wet Weather Inflow .......         4.145        41.452
  Groundwater Inflow .......         0.000         0.000
  RDII Inflow ..............         0.000         0.000
  External Inflow ..........         0.102         1.024
  External Outflow .........         2.031        20.312
  Flooding Loss ............         2.402        24.019
  Evaporation Loss .........         0.000         0.000
  Exfiltration Loss ........         0.000         0.000
  Initial Stored Volume ....         0.076         0.761
  Final Stored Volume ......         0.645         6.449
  Continuity Error (%) .....        -2.792
  
  
  **************************           COD            SS            TN            TP         NH4-N
  Quality Routing Continuity            kg            kg            kg            kg            kg
  **************************    ----------    ----------    ----------    ----------    ----------
  Dry Weather Inflow .......      1541.201      2465.922       147.955        18.494        92.472
  Wet Weather Inflow .......      3769.094      7063.067        72.765         4.963        34.592
  Groundwater Inflow .......         0.000         0.000         0.000         0.000         0.000
  RDII Inflow ..............         0.000         0.000         0.000         0.000         0.000
  External Inflow ..........       183.418       293.469        17.608         2.201        11.005
  External Outflow .........      2405.611      4166.170       150.152        17.593        90.660
  Flooding Loss ............      2390.396      4456.757        60.459         5.228        31.652
  Exfiltration Loss ........         0.000         0.000         0.000         0.000         0.000
  Mass Reacted .............         0.000         0.000         0.000         0.000         0.000
  Initial Stored Mass ......         0.000         0.000         0.000         0.000         0.000
  Final Stored Mass ........       548.513       945.178        24.305         2.587        14.064
  Continuity Error (%) .....         2.716         2.589         1.431         0.979         1.226
  
  
  *************************
  Highest Continuity Errors
  *************************
  Node HS02004842 (13.41%)
  Node JK-storage (-12.99%)
  Node YS02001884 (10.48%)
  Node HS02004817 (2.53%)
  Node YSB1171 (2.46%)
  
  
  ***************************
  Time-Step Critical Elements
  ***************************
  Link WS02006252WS02006251 (61.54%)
  Link WS02006280WS02006229 (10.69%)
  Link WS02006238WS02006235 (5.61%)
  Link YS02001793JiankangQianchi (4.61%)
  Link YS02006556YS02006558 (2.44%)
  
  
  ********************************
  Highest Flow Instability Indexes
  ********************************
  Link WS02006113WS02006111 (44)
  Link YS02001629YS02163301 (35)
  Link YS02163601YS02164001 (35)
  Link YS02163301YS02001633 (35)
  Link YS02001619YS02001622 (34)
  
  
  *************************
  Routing Time Step Summary
  *************************
  Minimum Time Step           :     0.36 sec
  Average Time Step           :     1.21 sec
  Maximum Time Step           :     5.00 sec
  Percent in Steady State     :    -0.00
  Average Iterations per Step :     4.13
  Percent Not Converging      :    17.91
  
  
  ***************************
  Subcatchment Runoff Summary
  ***************************
  
  ------------------------------------------------------------------------------------------------------------------------------
                            Total      Total      Total      Total     Imperv       Perv      Total       Total     Peak  Runoff
                           Precip      Runon       Evap      Infil     Runoff     Runoff     Runoff      Runoff   Runoff   Coeff
  Subcatchment                 mm         mm         mm         mm         mm         mm         mm    10^6 ltr      LPS
  ------------------------------------------------------------------------------------------------------------------------------
  sub0                      13.45       0.00       0.00       0.63      12.47       0.31      12.77        0.01     3.75   0.950
  sub1                      13.45       0.00       0.00       1.12      11.88       0.36      12.24        0.08    25.66   0.910
  sub2                      13.45       0.00       0.00       4.44       8.39       0.53       8.92        0.08    25.29   0.663
  sub3                      13.45       0.00       0.00       4.56       8.35       0.42       8.77        0.20    55.75   0.652
  sub4                      13.45       0.00       0.00       1.22      11.71       0.26      11.97        0.25    65.52   0.890
  sub5                      13.45       0.00       0.00       0.68      12.41       0.26      12.67        0.14    44.76   0.942
  sub7                      13.45       0.00       0.00       0.86      12.18       0.35      12.53        0.04    14.26   0.931
  sub8                      13.45       0.00       0.00       0.87      12.17       0.34      12.50        0.08    26.26   0.930
  sub9                      13.45       0.00       0.00       0.88      12.17       0.33      12.50        0.06    19.64   0.929
  sub10                     13.45       0.00       0.00       0.78      12.29       0.29      12.58        0.14    44.00   0.935
  sub11                     13.45       0.00       0.00       0.77      12.30       0.31      12.61        0.15    48.45   0.938
  sub12                     13.45       0.00       0.00       1.25      11.66       0.50      12.16        0.11    38.10   0.904
  sub14                     13.45       0.00       0.00       0.88      12.16       0.33      12.49        0.12    38.67   0.929
  sub15                     13.45       0.00       0.00       3.37       9.35       0.66      10.01        0.17    57.01   0.744
  sub16                     13.45       0.00       0.00       3.56       8.97       0.88       9.85        0.10    37.63   0.732
  sub17                     13.45       0.00       0.00       3.47       9.10       0.84       9.94        0.09    30.67   0.739
  sub22                     13.45       0.00       0.00       4.98       7.63       0.81       8.43        0.53   184.54   0.627
  sub23                     13.45       0.00       0.00       4.17       8.43       0.81       9.24        0.44   154.22   0.687
  sub60                     13.45       0.00       0.00       1.53       9.85       0.09       9.93        3.01   438.14   0.738
  sub61                     13.45       0.00       0.00       2.16       9.95       0.12      10.07        3.11   536.45   0.749
  sub62                     13.45       0.00       0.00       0.98      10.84       0.10      10.94        3.36   552.35   0.813
  sub63                     13.45       0.00       0.00       3.77       8.69       0.14       8.83        2.67   492.63   0.656
  sub64                     13.45       0.00       0.00       1.93       9.45       0.09       9.54        2.90   416.72   0.709
  sub65                     13.45       0.00       0.00       1.67       9.61       0.08       9.70        2.98   423.09   0.721
  sub66                     13.45       0.00       0.00       3.81       8.10       0.09       8.18        2.51   380.66   0.608
  sub67                     13.45       0.00       0.00       0.95      11.38       0.13      11.51        3.55   679.52   0.856
  sub68                     13.45       0.00       0.00       1.75      10.45       0.13      10.59        3.26   586.26   0.787
  sub69                     13.45       0.00       0.00       1.83      10.79       0.19      10.98        2.57   544.72   0.816
  sub70                     13.45      11.20       0.00       7.51      14.65       0.88      15.52        3.55   494.81   0.630
  sub71                     13.45       0.00       0.00       0.99      10.58       0.09      10.67        2.52   389.24   0.793
  sub72                     13.45       0.00       0.00       0.89       8.56       0.05       8.61        1.75   189.18   0.640
  1                         13.45      15.11       0.00       1.37      16.56       4.63      21.19        4.98   484.42   0.742
  2                         13.45       0.00       0.00       3.02       3.21       1.96       5.17        2.07   340.45   0.384
  
  
  ****************************
  Subcatchment Washoff Summary
  ****************************
  
  ------------------------------------------------------------------------------------------
                                 COD            SS            TN            TP         NH4-N
  Subcatchment                    kg            kg            kg            kg            kg
  ------------------------------------------------------------------------------------------
  sub0                         2.670         5.197         0.046         0.004         0.022
  sub1                        11.241        22.423         0.210         0.015         0.101
  sub2                         6.894        13.384         0.145         0.010         0.067
  sub3                        16.924        32.573         0.350         0.024         0.161
  sub4                        25.772        51.904         0.510         0.031         0.245
  sub5                        25.778        50.682         0.460         0.035         0.223
  sub7                         5.751        11.638         0.108         0.007         0.052
  sub8                         8.581        17.755         0.171         0.010         0.082
  sub9                         7.353        15.005         0.142         0.009         0.068
  sub10                       21.202        42.223         0.389         0.028         0.188
  sub11                       20.657        41.614         0.386         0.026         0.187
  sub12                       17.724        35.094         0.321         0.024         0.155
  sub14                       15.732        31.800         0.298         0.020         0.144
  sub15                       20.231        39.321         0.389         0.028         0.182
  sub16                       13.129        25.518         0.249         0.019         0.117
  sub17                       12.049        23.208         0.222         0.017         0.105
  sub22                       62.582       119.432         1.186         0.090         0.554
  sub23                       36.683        72.439         0.776         0.051         0.357
  sub60                      243.520       456.962         4.842         0.298         2.321
  sub61                      302.151       564.434         5.627         0.386         2.710
  sub62                      313.722       596.076         6.119         0.388         2.938
  sub63                      223.275       410.850         4.468         0.314         2.075
  sub64                      305.877       553.773         5.626         0.410         2.687
  sub65                      313.037       569.066         5.795         0.415         2.772
  sub66                      176.068       321.340         3.608         0.236         1.687
  sub67                      466.222       877.505         8.365         0.616         4.045
  sub68                      332.037       626.413         6.347         0.429         3.034
  sub69                      298.258       568.561         5.590         0.393         2.674
  sub70                      502.897       962.303        10.037         0.699         4.710
  sub71                      206.745       396.330         4.242         0.246         2.030
  sub72                      164.385       293.107         3.069         0.210         1.476
  1                          349.075       671.606         7.102         0.495         3.297
  2                           42.749        75.577         1.214         0.073         0.518
  ------------------------------------------------------------------------------------------
  System                    4570.974      8595.115        88.408         6.057        41.983
  
  
  ******************
  Node Depth Summary
  ******************
  
  ---------------------------------------------------------------------------------
                                 Average  Maximum  Maximum  Time of Max    Reported
                                   Depth    Depth      HGL   Occurrence   Max Depth
  Node                 Type       Meters   Meters   Meters  days hr:min      Meters
  ---------------------------------------------------------------------------------
  WS02001211           JUNCTION     0.77     0.85     5.69     0  03:07        0.85
  WS02001212           JUNCTION     0.48     0.58     5.64     0  03:06        0.58
  WS02001213           JUNCTION     0.72     0.85     5.62     0  03:06        0.85
  WS02003069           JUNCTION     0.52     0.72     5.31     0  03:05        0.72
  WS02003072           JUNCTION     0.58     0.76     5.13     0  03:06        0.76
  WS02003073           JUNCTION     0.36     0.48     4.54     0  03:06        0.48
  WS02003060           JUNCTION     0.46     0.63     5.57     0  03:05        0.63
  WS02003066           JUNCTION     0.25     0.39     5.94     0  03:04        0.39
  WS02003059           JUNCTION     0.77     0.91     5.60     0  03:05        0.91
  WS02003067           JUNCTION     0.61     0.82     6.14     0  03:04        0.82
  WS02004401           JUNCTION     0.74     1.23     7.23     0  03:02        1.23
  WS02004402           JUNCTION     0.76     1.22     7.18     0  03:01        1.22
  WS02004403           JUNCTION     0.78     1.19     7.12     0  03:01        1.19
  WS02004404           JUNCTION     0.86     1.24     7.09     0  03:00        1.24
  WS02004406           JUNCTION     0.85     1.16     6.99     0  03:01        1.16
  WS02004409           JUNCTION     0.55     0.96     6.73     0  03:03        0.96
  WS02004410           JUNCTION     0.57     0.95     6.67     0  03:03        0.95
  WS02004411           JUNCTION     0.58     0.93     6.61     0  03:03        0.93
  WS02004412           JUNCTION     0.59     0.90     6.54     0  03:04        0.90
  WS02004413           JUNCTION     0.75     1.02     6.49     0  03:04        1.02
  WS02004405           JUNCTION     0.85     1.22     7.07     0  03:01        1.21
  WS02006109           JUNCTION     0.83     1.65     8.27     0  03:02        1.64
  WS02006110           JUNCTION     0.80     1.44     8.03     0  03:02        1.44
  WS02006111           JUNCTION     0.25     0.88     7.59     0  03:02        0.88
  WS02006112           JUNCTION     0.92     1.55     7.44     0  03:01        1.55
  WS02006113           JUNCTION     0.38     0.92     7.81     0  03:02        0.92
  WS02006115           JUNCTION     0.63     1.21     7.35     0  03:02        1.21
  WS02006116           JUNCTION     0.71     1.26     7.30     0  03:01        1.26
  WS02006230           JUNCTION     0.84     1.87     8.62     0  03:02        1.87
  WS02006231           JUNCTION     0.59     1.51     8.64     0  03:02        1.51
  WS02006232           JUNCTION     0.73     1.62     8.66     0  03:02        1.61
  WS02006234           JUNCTION     0.67     1.52     8.68     0  03:02        1.52
  WS02006235           JUNCTION     0.72     1.53     8.70     0  03:01        1.52
  WS02006238           JUNCTION     0.74     1.55     8.69     0  03:01        1.54
  WS02006240           JUNCTION     0.64     1.40     8.69     0  03:02        1.40
  WS02006242           JUNCTION     0.70     1.42     8.69     0  03:01        1.42
  WS02006243           JUNCTION     0.58     1.27     8.69     0  03:01        1.27
  WS02006245           JUNCTION     0.56     1.21     8.69     0  03:01        1.20
  WS02006247           JUNCTION     0.57     1.20     8.70     0  03:01        1.19
  WS02006248           JUNCTION     0.51     1.10     8.69     0  02:57        1.10
  WS02006249           JUNCTION     0.53     1.09     8.69     0  02:54        1.09
  WS02006239           JUNCTION     0.70     1.48     8.69     0  03:02        1.48
  WS02006251           JUNCTION     0.52     1.40     9.07     0  02:54        1.20
  WS02006252           JUNCTION     0.33     0.86     9.10     0  02:54        0.75
  WS02006253           JUNCTION     0.55     1.46     9.10     0  04:11        1.23
  WS02006256           JUNCTION     1.75     2.35     9.28     0  00:00        2.35
  WS02004138           JUNCTION     0.19     0.20     7.45     0  00:00        0.19
  WS02004139           JUNCTION     0.72     0.79     5.70     0  03:07        0.79
  WS02004407           JUNCTION     0.24     0.40     6.71     0  03:03        0.40
  WS02006228           JUNCTION     0.84     1.82     8.47     0  03:02        1.82
  WS02006229           JUNCTION     0.83     1.90     8.59     0  03:02        1.89
  WS02006280           JUNCTION     0.07     0.30     8.57     0  03:05        0.30
  WS02006284           JUNCTION     0.37     0.65     9.04     0  03:02        0.64
  WS02006287           JUNCTION     0.10     0.39     9.34     0  03:02        0.39
  WSF200               JUNCTION     0.24     0.44     5.67     0  03:04        0.44
  HS02004901           JUNCTION     0.13     0.38    10.20     0  03:01        0.37
  HS02004881           JUNCTION     0.01     0.05     9.08     0  03:01        0.05
  HS02004876           JUNCTION     0.04     0.16     9.19     0  03:01        0.16
  HS02004870           JUNCTION     0.02     0.09     9.38     0  03:01        0.09
  HS02004862           JUNCTION     0.02     0.11     9.49     0  03:01        0.11
  HS02004856           JUNCTION     0.08     0.15     9.58     0  03:01        0.15
  HS02004852           JUNCTION     0.01     0.07     9.59     0  03:02        0.07
  HS02004848           JUNCTION     0.01     0.07     9.67     0  03:01        0.07
  HS02004842           JUNCTION     0.33     0.40     9.67     0  03:01        0.40
  HS02004837           JUNCTION     0.03     0.09     9.67     0  03:01        0.09
  HS02004830           JUNCTION     0.04     0.10     9.57     0  03:02        0.10
  HS02004824           JUNCTION     0.02     0.13     9.53     0  03:02        0.13
  HS02004817           JUNCTION     0.44     0.69     9.54     0  03:02        0.69
  HS02004807           JUNCTION     0.13     0.36     9.53     0  03:02        0.36
  HS02004802           JUNCTION     0.16     0.39     9.52     0  03:02        0.39
  HS02004799           JUNCTION     0.12     0.46     9.68     0  03:01        0.46
  HS02004792           JUNCTION     0.03     0.22     9.74     0  03:01        0.21
  HS02004788           JUNCTION     0.03     0.16    10.05     0  03:02        0.16
  HS02004785           JUNCTION     0.05     0.25    10.15     0  03:02        0.25
  HS02004777           JUNCTION     0.15     0.39    10.19     0  03:01        0.39
  HS02004770           JUNCTION     0.12     0.37    10.20     0  03:01        0.36
  HS02004480           JUNCTION     0.08     0.38     9.62     0  03:01        0.38
  HS02004479           JUNCTION     0.12     0.42     9.62     0  03:01        0.42
  HS02004478           JUNCTION     0.06     0.28     9.50     0  03:01        0.28
  YS02001745           JUNCTION     0.73     0.94     8.46     0  03:00        0.94
  YS02001748           JUNCTION     1.13     1.51     8.59     0  02:33        1.38
  YS02001751           JUNCTION     1.31     1.57     8.44     0  03:01        1.55
  YS02001754           JUNCTION     1.56     1.84     8.45     0  02:54        1.82
  YS02001762           JUNCTION     1.76     2.05     8.45     0  02:57        2.03
  YS02001765           JUNCTION     1.72     1.99     8.44     0  02:57        1.98
  YS02001767           JUNCTION     1.68     1.94     8.43     0  02:57        1.93
  YS02001770           JUNCTION     1.67     1.94     8.43     0  03:00        1.92
  YS02001774           JUNCTION     1.74     1.99     8.41     0  03:00        1.98
  YS02001779           JUNCTION     1.49     1.68     8.37     0  02:40        1.68
  YS02001882           JUNCTION     0.55     1.63     8.35     0  02:59        1.62
  YS02001884           JUNCTION     0.65     1.73     8.35     0  03:01        1.73
  YS02001759           JUNCTION     1.80     2.09     8.45     0  02:54        2.06
  YS02001887           JUNCTION     0.72     1.82     8.35     0  03:00        1.80
  YS02001890           JUNCTION     0.75     1.81     8.32     0  02:48        1.81
  YS02001898           JUNCTION     0.52     1.56     8.30     0  02:58        1.56
  YS02001901           JUNCTION     0.64     1.68     8.29     0  02:55        1.67
  YS02001904           JUNCTION     0.62     1.64     8.27     0  02:48        1.64
  YS02001907           JUNCTION     0.95     1.96     8.25     0  02:48        1.96
  YS02001910           JUNCTION     0.74     1.79     8.30     0  02:49        1.77
  YS02001915           JUNCTION     0.54     1.61     8.32     0  02:49        1.59
  YS02001918           JUNCTION     0.28     1.29     8.36     0  02:49        1.26
  YS02001619           JUNCTION     1.27     1.55     8.48     0  02:31        1.48
  YS02001629           JUNCTION     1.63     1.85     8.40     0  02:40        1.84
  YS02001641           JUNCTION     1.72     1.94     8.37     0  02:40        1.93
  YS02001644           JUNCTION     1.73     1.92     8.35     0  02:39        1.92
  YS02001652           JUNCTION     1.58     2.16     8.76     0  02:43        1.85
  YS02001655           JUNCTION     1.34     2.20     9.05     0  02:25        1.64
  YS02001920           JUNCTION     0.38     1.38     8.38     0  02:49        1.35
  YS02001923           JUNCTION     0.22     1.14     8.40     0  02:49        1.10
  YS02001926           JUNCTION     0.28     0.96     8.41     0  02:49        0.92
  YS02001929           JUNCTION     0.16     0.72     8.41     0  02:49        0.69
  YS02001658           JUNCTION     1.07     2.25     9.39     0  02:45        1.41
  YS02001661           JUNCTION     0.84     2.46     9.86     0  02:43        1.21
  YS02001664           JUNCTION     0.37     0.57     8.50     0  02:42        0.57
  YS02001622           JUNCTION     1.30     1.52     8.42     0  02:30        1.50
  YS02001633           JUNCTION     1.72     1.96     8.41     0  02:40        1.94
  YS02001649           JUNCTION     1.77     2.05     8.44     0  02:42        2.05
  YS02001757           JUNCTION     1.89     2.18     8.44     0  02:54        2.15
  YS02001895           JUNCTION     0.52     1.57     8.31     0  02:57        1.56
  YS02001625           JUNCTION     1.58     1.78     8.38     0  02:30        1.78
  YS02163301           JUNCTION     1.66     1.89     8.40     0  02:40        1.87
  YS02163601           JUNCTION     1.77     2.00     8.40     0  02:40        1.98
  YS02164001           JUNCTION     1.71     1.93     8.39     0  02:40        1.91
  YS02001647           JUNCTION     1.56     1.81     8.42     0  02:45        1.79
  YSB1154              JUNCTION     0.26     0.57     9.62     0  03:01        0.57
  YSB6556              JUNCTION     0.15     0.45     9.62     0  03:02        0.45
  YSB1174              JUNCTION     0.21     0.52     9.62     0  03:01        0.51
  YSB1171              JUNCTION     0.41     0.72     9.62     0  03:01        0.72
  YS02006553           JUNCTION     0.95     1.97     8.25     0  02:59        1.96
  YS02006561           JUNCTION     0.31     1.08     7.74     0  03:00        1.07
  YS02006556           JUNCTION     0.92     1.93     8.24     0  03:00        1.93
  YS02006558           JUNCTION     0.96     1.98     8.24     0  02:59        1.97
  YS02001783           JUNCTION     0.53     1.54     7.69     0  02:28        1.46
  YS02001784           JUNCTION     0.55     1.42     7.49     0  02:28        1.39
  YS02001786           JUNCTION     0.49     1.36     7.39     0  02:28        1.23
  YS02001788           JUNCTION     0.42     1.18     7.15     0  02:28        1.09
  YS02001790           JUNCTION     0.54     1.96     7.60     0  02:27        1.25
  YS02001791           JUNCTION     0.51     1.78     7.25     0  06:25        1.23
  YS02001793           JUNCTION     0.70     2.94     7.77     0  04:38        1.80
  WSC                  OUTFALL      0.36     0.48     1.15     0  03:07        0.48
  JK-storage           STORAGE      2.73     5.80     6.60     0  02:28        5.80
  CC-storage           STORAGE      1.15     1.41     8.41     0  03:14        1.41
  XR-storage           STORAGE      6.57     7.72     5.72     0  03:02        7.72
  
  
  *******************
  Node Inflow Summary
  *******************
  
  -------------------------------------------------------------------------------------------------
                                  Maximum  Maximum                  Lateral       Total        Flow
                                  Lateral    Total  Time of Max      Inflow      Inflow     Balance
                                   Inflow   Inflow   Occurrence      Volume      Volume       Error
  Node                 Type           LPS      LPS  days hr:min    10^6 ltr    10^6 ltr     Percent
  -------------------------------------------------------------------------------------------------
  WS02001211           JUNCTION      7.35   390.29     0  03:16       0.207        10.2       0.406
  WS02001212           JUNCTION      0.00   393.24     0  03:16           0        10.2       0.248
  WS02001213           JUNCTION      0.00   395.76     0  03:16           0        10.1       0.296
  WS02003069           JUNCTION      0.32  1334.16     0  03:05     0.00902        20.4       0.195
  WS02003072           JUNCTION      0.00  1333.82     0  03:06           0        20.4       0.228
  WS02003073           JUNCTION      1.82  1335.64     0  03:06      0.0514        20.4       0.269
  WS02003060           JUNCTION     16.53  1334.18     0  03:04       0.466        20.4       0.182
  WS02003066           JUNCTION      0.00   938.89     0  03:04           0        9.92       0.055
  WS02003059           JUNCTION      0.00   398.69     0  03:15           0        10.1       0.416
  WS02003067           JUNCTION      0.00   938.43     0  03:04           0        9.93       0.109
  WS02004401           JUNCTION      0.00   938.94     0  03:03           0        10.2       0.240
  WS02004402           JUNCTION      0.00   939.05     0  03:03           0        10.2       0.223
  WS02004403           JUNCTION      0.00   939.15     0  03:03           0        10.1       0.201
  WS02004404           JUNCTION      0.16   939.44     0  03:03     0.00457        10.1       0.145
  WS02004406           JUNCTION      0.00   939.77     0  03:03           0        10.1       0.359
  WS02004409           JUNCTION      0.00   939.66     0  03:03           0        10.1       0.208
  WS02004410           JUNCTION      0.00   938.74     0  03:03           0          10       0.230
  WS02004411           JUNCTION      0.00   938.35     0  03:03           0          10       0.232
  WS02004412           JUNCTION      0.00   938.06     0  03:03           0        9.99       0.244
  WS02004413           JUNCTION      0.00   938.21     0  03:04           0        9.96       0.350
  WS02004405           JUNCTION      0.04   939.64     0  03:03     0.00107        10.1       0.219
  WS02006109           JUNCTION      1.23   914.74     0  03:02      0.0347        10.2       0.201
  WS02006110           JUNCTION      0.00   914.79     0  03:02           0        10.2       0.207
  WS02006111           JUNCTION      0.00   915.13     0  03:02           0        10.2       0.049
  WS02006112           JUNCTION     30.67   938.61     0  03:02      0.0853        10.3       0.327
  WS02006113           JUNCTION      0.00   914.84     0  03:02           0        10.2       0.120
  WS02006115           JUNCTION      0.00   938.67     0  03:02           0        10.2       0.240
  WS02006116           JUNCTION      0.00   938.83     0  03:02           0        10.2       0.207
  WS02006230           JUNCTION     10.28   534.35     0  07:32        0.29        7.83       0.214
  WS02006231           JUNCTION      0.00   524.31     0  07:32           0        7.55       0.166
  WS02006232           JUNCTION      0.00   524.33     0  07:32           0        7.57       0.242
  WS02006234           JUNCTION      0.00   524.33     0  07:32           0        7.58       0.140
  WS02006235           JUNCTION      0.00   524.67     0  06:50           0        7.67       0.154
  WS02006238           JUNCTION      0.00   418.40     0  07:40           0        4.26       0.228
  WS02006240           JUNCTION      0.00   416.38     0  07:40           0        4.21       0.387
  WS02006242           JUNCTION      0.00   416.26     0  07:40           0         4.2       0.437
  WS02006243           JUNCTION      0.00   416.15     0  07:40           0         4.2       0.402
  WS02006245           JUNCTION      0.00   416.25     0  07:40           0        4.21       0.381
  WS02006247           JUNCTION      0.00   416.69     0  07:40           0        4.21       0.263
  WS02006248           JUNCTION      0.00   417.45     0  07:40           0        4.22       0.218
  WS02006249           JUNCTION      0.00   537.37     0  03:00           0        4.77       0.323
  WS02006239           JUNCTION      0.00   417.44     0  07:40           0        4.24       0.271
  WS02006251           JUNCTION      0.08   536.33     0  03:00     0.00217        4.85       0.351
  WS02006252           JUNCTION      0.00   400.00     0  03:20           0        4.32       0.011
  WS02006253           JUNCTION      3.75   144.27     0  04:10      0.0103       0.537       2.371
  WS02006256           JUNCTION      0.00   983.00     0  02:40           0        10.6      -0.010
  WS02004138           JUNCTION      0.00   380.00     0  00:00           0          10       0.063
  WS02004139           JUNCTION      0.32   395.85     0  00:00     0.00905          10       0.462
  WS02004407           JUNCTION      0.00   939.87     0  03:03           0        10.1       0.092
  WS02006228           JUNCTION      0.00   913.40     0  03:02           0        10.2       0.159
  WS02006229           JUNCTION      0.00   915.94     0  03:02           0        10.2       0.143
  WS02006280           JUNCTION      0.00   680.22     0  03:02           0        2.43       0.012
  WS02006284           JUNCTION      0.10   679.07     0  03:02      0.0027        2.43       0.044
  WS02006287           JUNCTION      0.00   677.72     0  03:02           0        2.43       0.033
  WSF200               JUNCTION      0.00   939.04     0  03:04           0        9.91       0.055
  HS02004901           JUNCTION     37.63    37.63     0  03:01       0.103       0.103       1.744
  HS02004881           JUNCTION     14.26   140.55     0  03:01      0.0422       0.463       0.108
  HS02004876           JUNCTION     25.66   127.65     0  03:01      0.0814       0.422       0.129
  HS02004870           JUNCTION     26.26   103.58     0  03:01      0.0799        0.34       0.036
  HS02004862           JUNCTION     25.49    79.37     0  03:01      0.0888       0.261       0.067
  HS02004856           JUNCTION     19.64    55.41     0  03:01      0.0601       0.173       0.846
  HS02004852           JUNCTION      0.00    37.85     0  03:01           0       0.113       0.053
  HS02004848           JUNCTION     55.75    55.75     0  03:01       0.197       0.197       0.030
  HS02004842           JUNCTION      0.00    16.84     0  03:01           0       0.097      15.491
  HS02004837           JUNCTION     50.35    65.69     0  03:01       0.318       0.402       0.205
  HS02004830           JUNCTION      0.15    64.80     0  03:01     0.00423       0.392       0.316
  HS02004824           JUNCTION     65.57   128.45     0  03:01       0.251       0.642       0.086
  HS02004817           JUNCTION      0.60   124.46     0  03:01      0.0169       0.658       2.599
  HS02004807           JUNCTION     48.45   165.76     0  03:01       0.147       0.788       0.555
  HS02004802           JUNCTION      0.00   165.30     0  03:04           0       0.785       0.508
  HS02004799           JUNCTION     38.67   446.06     0  03:01       0.119        1.42       0.191
  HS02004792           JUNCTION    184.82   411.83     0  03:01        0.54         1.3       0.035
  HS02004788           JUNCTION     58.68   233.43     0  03:02       0.219       0.758       0.054
  HS02004785           JUNCTION      0.15   182.21     0  03:01     0.00423        0.54       0.094
  HS02004777           JUNCTION      0.03   185.01     0  03:01    0.000846       0.541       0.972
  HS02004770           JUNCTION    154.22   188.91     0  03:01       0.441       0.542       0.580
  HS02004480           JUNCTION      0.00   517.23     0  03:01           0        1.66       0.067
  HS02004479           JUNCTION      0.00    75.43     0  03:02           0       0.258       0.287
  HS02004478           JUNCTION      0.00   677.13     0  03:02           0        2.43       0.010
  YS02001745           JUNCTION    438.14   438.14     0  03:01        3.01        3.02       0.340
  YS02001748           JUNCTION      0.04   553.52     0  02:32     0.00127        3.01       0.724
  YS02001751           JUNCTION      0.01   442.46     0  03:01     0.00031        2.98       0.787
  YS02001754           JUNCTION      0.26   443.08     0  03:01     0.00733        2.96       0.837
  YS02001762           JUNCTION      0.00   313.89     0  02:43           0        1.76       1.209
  YS02001765           JUNCTION      0.00   314.00     0  02:43           0        1.76       1.405
  YS02001767           JUNCTION      0.54   314.33     0  02:43      0.0151        1.79       2.044
  YS02001770           JUNCTION    552.50   649.58     0  03:01        3.37        3.69       0.867
  YS02001774           JUNCTION      0.00   650.75     0  03:01           0        2.21       1.162
  YS02001779           JUNCTION      0.01   650.33     0  03:01    0.000141        2.18       0.713
  YS02001882           JUNCTION      0.00    22.08     0  02:30           0      0.0215      11.591
  YS02001884           JUNCTION      0.00    50.91     0  02:30           0      0.0604      11.708
  YS02001759           JUNCTION    536.49   621.22     0  02:43        3.11        4.52       0.502
  YS02001887           JUNCTION    679.97   680.00     0  03:01        3.56         3.6       0.245
  YS02001890           JUNCTION      0.00   680.26     0  03:01           0        3.55       0.267
  YS02001898           JUNCTION      0.00   517.82     0  02:59           0        3.45       0.090
  YS02001901           JUNCTION      0.00   517.96     0  02:59           0        3.45       0.204
  YS02001904           JUNCTION      0.00   517.67     0  02:58           0        3.44       0.191
  YS02001907           JUNCTION      0.00  1101.95     0  03:02           0        7.77       0.317
  YS02001910           JUNCTION      0.00   585.04     0  03:02           0        4.34       0.280
  YS02001915           JUNCTION    389.26   584.50     0  03:02        2.52        4.35       0.142
  YS02001918           JUNCTION      0.00   264.49     0  02:50           0        1.84       0.076
  YS02001619           JUNCTION    380.66   380.66     0  03:01        2.51        2.51       0.481
  YS02001629           JUNCTION      0.00   195.89     0  02:39           0        1.59       1.838
  YS02001641           JUNCTION      0.00   411.90     0  02:39           0        4.45       0.476
  YS02001644           JUNCTION    416.76  1491.03     0  03:01         2.9        10.8       0.240
  YS02001652           JUNCTION      0.00   501.03     0  03:01           0        2.63       0.888
  YS02001655           JUNCTION      0.15   500.27     0  03:01     0.00434        2.65       0.927
  YS02001920           JUNCTION      2.87   263.55     0  02:50      0.0809        1.84       0.156
  YS02001923           JUNCTION      0.04   240.53     0  02:50     0.00106        1.76       0.058
  YS02001926           JUNCTION      0.05   203.17     0  03:02     0.00147        1.75       0.187
  YS02001929           JUNCTION    189.18   189.18     0  03:01        1.75        1.75       0.036
  YS02001658           JUNCTION      0.00   586.01     0  02:30           0        2.69       0.796
  YS02001661           JUNCTION      0.00   674.68     0  02:43           0        3.06      -0.122
  YS02001664           JUNCTION    492.63   492.63     0  03:01        2.67        3.05       0.168
  YS02001622           JUNCTION      0.00   381.77     0  03:01           0         2.5       1.280
  YS02001633           JUNCTION    423.29   423.29     0  03:01        2.99        4.52       0.717
  YS02001649           JUNCTION      0.00   875.03     0  02:40           0         6.2       0.603
  YS02001757           JUNCTION      0.00  1677.99     0  02:40           0        9.75       0.949
  YS02001895           JUNCTION      0.00   517.50     0  02:59           0        3.45       0.146
  YS02001625           JUNCTION      0.00   408.62     0  03:01           0        2.48       1.593
  YS02163301           JUNCTION      0.00   216.35     0  02:30           0        1.57       1.555
  YS02163601           JUNCTION      0.11   412.08     0  02:39      0.0031        4.48       0.677
  YS02164001           JUNCTION      0.00   411.94     0  02:39           0        4.46       0.454
  YS02001647           JUNCTION      0.00   680.65     0  03:01           0        5.35       0.525
  YSB1154              JUNCTION     44.76    44.76     0  03:01       0.144       0.144       1.020
  YSB6556              JUNCTION      0.00    43.27     0  03:01           0       0.145       0.869
  YSB1174              JUNCTION     38.10    38.10     0  03:01       0.106       0.107       1.223
  YSB1171              JUNCTION      0.00    76.90     0  03:01           0       0.257       2.526
  YS02006553           JUNCTION      0.00   709.71     0  03:46           0        6.74       0.231
  YS02006561           JUNCTION      0.00  1041.05     0  02:48           0        9.97       0.008
  YS02006556           JUNCTION      0.00   709.77     0  03:46           0        6.75       0.172
  YS02006558           JUNCTION    587.14  1041.35     0  02:48        3.28          10       0.050
  YS02001783           JUNCTION      0.00  1041.49     0  02:48           0        9.97       0.024
  YS02001784           JUNCTION      1.06  1042.21     0  02:48      0.0299        9.99       0.038
  YS02001786           JUNCTION      0.06  1042.19     0  02:48     0.00159        9.99       0.037
  YS02001788           JUNCTION      0.07  1041.99     0  02:48       0.002        9.99       0.023
  YS02001790           JUNCTION      0.15  1041.76     0  02:48     0.00437        9.99       0.016
  YS02001791           JUNCTION      0.00  1041.83     0  02:48           0        9.99       0.013
  YS02001793           JUNCTION      0.00  1041.91     0  02:48           0        9.99      -0.039
  WSC                  OUTFALL       0.00  1335.73     0  03:07           0        20.3       0.000
  JK-storage           STORAGE       0.00  1041.76     0  02:48           0        10.1     -11.493
  CC-storage           STORAGE       0.00  1678.16     0  02:40           0        7.87       0.795
  XR-storage           STORAGE    1024.87  1024.87     0  03:01        12.7        13.3      -0.003
  
  
  **********************
  Node Surcharge Summary
  **********************
  
  Surcharging occurs when water rises above the top of the highest conduit.
  ---------------------------------------------------------------------
                                               Max. Height   Min. Depth
                                   Hours       Above Crown    Below Rim
  Node                 Type      Surcharged         Meters       Meters
  ---------------------------------------------------------------------
  WS02004401           JUNCTION        0.53          0.230        1.430
  WS02004402           JUNCTION        0.59          0.220        1.520
  WS02004403           JUNCTION        0.61          0.194        1.836
  WS02004404           JUNCTION        0.95          0.240        2.540
  WS02004406           JUNCTION        0.83          0.162        2.288
  WS02004413           JUNCTION        0.20          0.023        2.177
  WS02004405           JUNCTION        0.90          0.218        2.582
  WS02006109           JUNCTION        4.07          0.828        0.992
  WS02006110           JUNCTION        1.92          0.533        1.317
  WS02006111           JUNCTION        0.13          0.073        1.797
  WS02006112           JUNCTION        2.37          0.554        1.126
  WS02006113           JUNCTION        0.16          0.121        1.809
  WS02006115           JUNCTION        0.37          0.205        2.045
  WS02006116           JUNCTION        0.39          0.199        2.091
  WS02006230           JUNCTION        1.66          0.792        0.778
  WS02006231           JUNCTION        2.07          0.805        0.725
  WS02006232           JUNCTION        3.89          0.917        0.563
  WS02006234           JUNCTION        2.93          0.800        0.440
  WS02006235           JUNCTION        3.29          0.824        0.466
  WS02006238           JUNCTION        3.43          0.829        0.601
  WS02006240           JUNCTION        2.87          0.689        0.701
  WS02006242           JUNCTION        3.05          0.693        0.127
  WS02006243           JUNCTION        2.48          0.563        0.207
  WS02006245           JUNCTION        2.33          0.500        0.350
  WS02006247           JUNCTION        2.36          0.486        0.274
  WS02006248           JUNCTION        2.18          0.380        0.000
  WS02006249           JUNCTION        2.24          0.390        0.000
  WS02006239           JUNCTION        3.03          0.743        0.547
  WS02006251           JUNCTION        1.26          0.367        0.813
  WS02006252           JUNCTION        2.49          0.458        0.642
  WS02006253           JUNCTION        1.31          0.417        2.063
  WS02006256           JUNCTION        6.84          2.050        0.000
  WS02006228           JUNCTION        3.99          0.993        1.207
  YS02001748           JUNCTION        5.23          0.435        0.755
  YS02001751           JUNCTION        5.37          0.566        0.634
  YS02001754           JUNCTION        5.57          0.789        0.361
  YS02001762           JUNCTION        5.75          1.045        0.105
  YS02001765           JUNCTION        5.72          0.990        0.110
  YS02001767           JUNCTION        5.69          0.945        0.085
  YS02001770           JUNCTION        5.67          0.907        0.013
  YS02001774           JUNCTION        5.74          0.987        0.063
  YS02001779           JUNCTION        5.56          0.680        0.000
  YS02001882           JUNCTION        1.12          0.633        0.197
  YS02001884           JUNCTION        1.15          0.674        0.196
  YS02001759           JUNCTION        5.78          1.086        0.124
  YS02001887           JUNCTION        1.21          0.766        0.184
  YS02001890           JUNCTION        1.24          0.760        0.000
  YS02001898           JUNCTION        1.07          0.532        0.208
  YS02001901           JUNCTION        1.18          0.678        0.192
  YS02001904           JUNCTION        1.16          0.638        0.212
  YS02001907           JUNCTION        1.91          0.950        0.000
  YS02001910           JUNCTION        1.28          0.790        0.310
  YS02001915           JUNCTION        1.10          0.606        0.394
  YS02001918           JUNCTION        0.89          0.295        0.515
  YS02001619           JUNCTION        5.37          0.553        0.057
  YS02001629           JUNCTION        5.38          0.470        0.000
  YS02001641           JUNCTION        5.73          0.938        0.162
  YS02001644           JUNCTION        5.73          0.920        0.000
  YS02001652           JUNCTION        5.61          1.130        0.000
  YS02001655           JUNCTION        5.39          1.200        0.000
  YS02001920           JUNCTION        0.92          0.376        0.764
  YS02001658           JUNCTION        5.25          1.249        0.051
  YS02001661           JUNCTION        0.16          1.390        0.000
  YS02001622           JUNCTION        5.41          0.519        0.101
  YS02001633           JUNCTION        5.71          0.935        0.125
  YS02001649           JUNCTION        5.75          1.050        0.000
  YS02001757           JUNCTION        5.86          1.178        0.032
  YS02001895           JUNCTION        1.08          0.566        0.184
  YS02001625           JUNCTION        5.64          0.780        0.000
  YS02163301           JUNCTION        5.69          0.886        0.144
  YS02163601           JUNCTION        5.75          0.999        0.081
  YS02164001           JUNCTION        5.72          0.929        0.171
  YS02001647           JUNCTION        5.62          0.806        0.094
  YS02006553           JUNCTION        1.98          0.971        0.219
  YS02006561           JUNCTION        0.91          0.280        0.870
  YS02006556           JUNCTION        1.51          0.894        0.456
  YS02006558           JUNCTION        1.47          0.876        0.524
  YS02001783           JUNCTION        1.39          0.745        0.855
  YS02001784           JUNCTION        1.37          0.620        0.870
  YS02001786           JUNCTION        1.31          0.562        0.868
  YS02001788           JUNCTION        1.15          0.376        1.104
  YS02001790           JUNCTION        2.06          1.157        0.000
  YS02001791           JUNCTION        2.14          0.977        0.943
  YS02001793           JUNCTION        2.39          1.940        0.660
  
  
  *********************
  Node Flooding Summary
  *********************
  
  Flooding refers to all water that overflows a node, whether it ponds or not.
  --------------------------------------------------------------------------
                                                             Total   Maximum
                                 Maximum   Time of Max       Flood    Ponded
                        Hours       Rate    Occurrence      Volume     Depth
  Node                 Flooded       LPS   days hr:min    10^6 ltr    Meters
  --------------------------------------------------------------------------
  WS02006248              0.08     15.30      0  03:03       0.002     0.000
  WS02006249              1.20    424.91      0  03:00       0.529     0.000
  WS02006256              4.20    830.96      0  03:02       7.122     0.000
  YS02001779              2.88    650.24      0  03:01       2.157     0.000
  YS02001890              0.34    164.22      0  03:01       0.085     0.000
  YS02001907              0.76    690.52      0  03:02       1.014     0.000
  YS02001644              4.34   1490.71      0  03:01       8.955     0.000
  YS02001652              0.01      9.48      0  02:43       0.000     0.000
  YS02001655              0.01    148.01      0  02:25       0.000     0.000
  YS02001661              0.01    145.93      0  02:43       0.000     0.000
  YS02001649              0.02     42.36      0  02:45       0.001     0.000
  YS02001625              1.41    408.52      0  03:01       0.856     0.000
  YS02001790              0.01    227.98      0  04:40       0.001     0.000
  JK-storage              0.72    689.22      0  02:30       0.797     0.000
  XR-storage              3.41    627.63      0  03:02       2.500     0.000
  
  
  **********************
  Storage Volume Summary
  **********************
  
  --------------------------------------------------------------------------------------------------
                         Average     Avg  Evap Exfil       Maximum     Max    Time of Max    Maximum
                          Volume    Pcnt  Pcnt  Pcnt        Volume    Pcnt     Occurrence    Outflow
  Storage Unit           1000 m3    Full  Loss  Loss       1000 m3    Full    days hr:min        LPS
  --------------------------------------------------------------------------------------------------
  JK-storage               0.137      47     0     0         0.291     100       0  02:28     983.00
  CC-storage               3.211      20     0     0         3.921      25       0  03:14     400.00
  XR-storage               0.788      85     0     0         0.926     100       0  03:02     380.00
  
  
  ***********************
  Outfall Loading Summary
  ***********************
  
  ---------------------------------------------------------------------------------------------------------------------------------
                         Flow       Avg       Max       Total         Total         Total         Total         Total         Total
                         Freq      Flow      Flow      Volume           COD            SS            TN            TP         NH4-N
  Outfall Node           Pcnt       LPS       LPS    10^6 ltr            kg            kg            kg            kg            kg
  ---------------------------------------------------------------------------------------------------------------------------------
  WSC                   99.98    797.35   1335.73      20.312      2405.798      4166.489       150.166        17.595        90.668
  ---------------------------------------------------------------------------------------------------------------------------------
  System                99.98    797.35   1335.73      20.312      2405.798      4166.489       150.166        17.595        90.668
  
  
  ********************
  Link Flow Summary
  ********************
  
  -----------------------------------------------------------------------------
                                 Maximum  Time of Max   Maximum    Max/    Max/
                                  |Flow|   Occurrence   |Veloc|    Full    Full
  Link                 Type          LPS  days hr:min     m/sec    Flow   Depth
  -----------------------------------------------------------------------------
  WS02003066WSF200     CONDUIT    939.04     0  03:04      3.00    0.16    0.32
  WS02006287WS02006284 CONDUIT    678.98     0  03:02      2.38    0.31    0.39
  WS02006284WS02006280 CONDUIT    680.22     0  03:02      2.62    0.28    0.37
  WS02006280WS02006229 CONDUIT    680.29     0  03:02      3.84    0.15    0.50
  WS02006229WS02006228 CONDUIT    913.40     0  03:02      1.82    3.03    1.00
  WS02006256WS02006235 CONDUIT    288.92     0  00:00      4.23    3.06    1.00
  WS02006253WS02006251 CONDUIT    144.34     0  03:01      0.59    0.43    1.00
  WS02006252WS02006251 CONDUIT    404.59     0  05:13      3.22    1.49    1.00
  WS02006251WS02006249 CONDUIT    537.37     0  03:00      1.40    1.55    1.00
  WS02006249WS02006248 CONDUIT    417.45     0  07:40      1.12    2.29    1.00
  WS02006248WS02006247 CONDUIT    416.69     0  07:40      1.08    0.91    1.00
  WS02006247WS02006245 CONDUIT    416.25     0  07:40      1.08    3.30    1.00
  WS02006245WS02006243 CONDUIT    416.15     0  07:40      1.08    1.23    1.00
  WS02006243WS02006242 CONDUIT    416.26     0  07:40      1.08    0.89    1.00
  WS02006242WS02006240 CONDUIT    416.38     0  07:40      1.08    1.65    1.00
  WS02006240WS02006239 CONDUIT    417.44     0  07:40      1.08    1.31    1.00
  WS02006239WS02006238 CONDUIT    418.40     0  07:40      1.09    1.34    1.00
  WS02006238WS02006235 CONDUIT    419.66     0  07:40      1.45    0.94    1.00
  WS02006235WS02006234 CONDUIT    524.33     0  07:32      1.36    5.53    1.00
  WS02006234WS02006232 CONDUIT    524.33     0  07:32      1.39    1.06    1.00
  WS02006232WS02006231 CONDUIT    524.31     0  07:32      1.36    1.10    1.00
  WS02006231WS02006230 CONDUIT    524.07     0  07:32      1.36    7.95    1.00
  WS02006230WS02006229 CONDUIT    535.27     0  06:50      1.39   11.91    1.00
  WS02006228WS02006109 CONDUIT    913.51     0  03:02      1.82    3.99    1.00
  WS02006116WS02004401 CONDUIT    938.94     0  03:03      1.20    1.29    1.00
  WS02006115WS02006116 CONDUIT    938.83     0  03:02      1.20    1.20    1.00
  WS02006113WS02006111 CONDUIT    915.13     0  03:02      2.59    1.10    1.00
  WS02006112WS02006115 CONDUIT    938.67     0  03:02      1.20    0.55    1.00
  WS02006111WS02006112 CONDUIT    915.57     0  03:03      1.82    0.44    1.00
  WS02006110WS02006113 CONDUIT    914.84     0  03:02      1.82    0.83    1.00
  WS02006109WS02006110 CONDUIT    914.79     0  03:02      1.82    1.76    1.00
  WS02004411WS02004412 CONDUIT    938.06     0  03:03      1.24    1.33    0.92
  WS02004401WS02004402 CONDUIT    939.05     0  03:03      1.20    1.13    1.00
  WS02004413WS02003067 CONDUIT    938.43     0  03:04      1.55    0.40    0.72
  WS02004412WS02004413 CONDUIT    938.21     0  03:04      1.22    0.63    0.95
  WS02004410WS02004411 CONDUIT    938.35     0  03:03      1.23    1.28    0.94
  WS02004409WS02004410 CONDUIT    938.74     0  03:03      1.22    1.21    0.95
  WS02004407WS02004409 CONDUIT    939.66     0  03:03      1.67    0.33    0.68
  WS02004406WS02004407 CONDUIT    939.87     0  03:03      1.60    0.42    0.70
  WS02004405WS02004406 CONDUIT    939.77     0  03:03      1.20    1.85    1.00
  WS02004404WS02004405 CONDUIT    939.60     0  03:03      1.20    9.21    1.00
  WS02004403WS02004404 CONDUIT    939.28     0  03:03      1.20    0.68    1.00
  WS02004402WS02004403 CONDUIT    939.15     0  03:03      1.20    1.35    1.00
  WS02004139WS02001211 CONDUIT    382.94     0  03:16      0.90    0.48    0.64
  WS02004138WS02004139 CONDUIT    395.52     0  00:00      3.64    0.08    0.47
  WS02003067WS02003066 CONDUIT    938.89     0  03:04      1.65    0.30    0.50
  WS02001213WS02003059 CONDUIT    398.69     0  03:15      0.89    0.66    0.87
  WS02001212WS02001213 CONDUIT    395.76     0  03:16      1.32    0.61    0.56
  WS02001211WS02001212 CONDUIT    393.24     0  03:16      0.78    0.30    0.71
  WS02003072WS02003073 CONDUIT   1333.82     0  03:06      1.96    2.88    0.58
  WS02003069WS02003072 CONDUIT   1333.82     0  03:06      1.82    0.64    0.62
  WS02003060WS02003069 CONDUIT   1333.84     0  03:05      2.03    0.52    0.56
  WS02003059WS02003060 CONDUIT    402.25     0  03:15      0.95    0.26    0.77
  HS02004901HS02004770 CONDUIT     37.22     0  03:01      0.10    0.14    0.53
  HS02004876HS02004881 CONDUIT    127.65     0  03:01      1.21    1.36    0.15
  HS02004870HS02004876 CONDUIT    103.11     0  03:01      0.82    0.07    0.18
  HS02004842HS02004848 CONDUIT     16.84     0  03:01      0.07    0.01    0.33
  HS02004837HS02004842 CONDUIT     17.91     0  03:03      0.42    0.01    0.35
  HS02004830HS02004837 CONDUIT     64.65     0  03:01      0.67    0.06    0.14
  HS02004824HS02004830 CONDUIT     64.13     0  03:02      0.62    0.08    0.16
  HS02004817HS02004824 CONDUIT    123.86     0  03:01      0.31    0.06    0.58
  HS02004770HS02004777 CONDUIT    184.98     0  03:01      0.49    0.34    0.54
  HS02004799HS02004480 CONDUIT    444.38     0  03:01      1.07    0.56    0.60
  HS02004792HS02004799 CONDUIT    408.49     0  03:01      1.20    0.25    0.49
  HS02004788HS02004792 CONDUIT    232.96     0  03:02      1.28    0.15    0.26
  HS02004785HS02004788 CONDUIT    181.80     0  03:02      0.91    1.37    0.29
  HS02004777HS02004785 CONDUIT    182.06     0  03:01      0.57    0.22    0.45
  HS02004480HS02004478 CONDUIT    517.40     0  03:01      1.55    2.18    0.48
  HS02004479HS02004480 CONDUIT     77.33     0  03:02      0.30    0.07    0.57
  HS02004862HS02004870 CONDUIT     79.03     0  03:01      0.80    0.09    0.14
  HS02004848HS02004852 CONDUIT     37.85     0  03:01      0.53    0.04    0.10
  HS02004856HS02004862 CONDUIT     54.77     0  03:01      0.59    0.05    0.13
  HS02004852HS02004856 CONDUIT     37.76     0  03:02      0.34    0.04    0.16
  HS02004802HS02004478 CONDUIT    170.16     0  03:04      0.54    0.15    0.48
  HS02004478WS02006287 CONDUIT    677.72     0  03:02      2.11    0.19    0.36
  HS02004817HS02004807 CONDUIT    128.13     0  03:04      0.25    0.08    0.75
  HS02004807HS02004802 CONDUIT    165.30     0  03:04      0.46    0.32    0.53
  YS02001759YS02001757 CONDUIT    621.02     0  02:43      0.79    0.44    1.00
  YS02001762YS02001759 CONDUIT    313.58     0  02:43      0.40    0.36    1.00
  YS02001765YS02001762 CONDUIT    313.89     0  02:43      0.40    0.29    1.00
  YS02001770YS02001767 CONDUIT    313.79     0  02:43      0.40    1.24    1.00
  YS02001774YS02001770 CONDUIT    650.75     0  03:01      0.83    0.42    1.00
  YS02001779YS02001774 CONDUIT    650.33     0  03:01      0.83    0.33    1.00
  YS02001649YS02001757 CONDUIT    874.53     0  02:40      1.11    0.53    1.00
  YS02001767YS02001765 CONDUIT    314.00     0  02:43      0.40    0.39    1.00
  YS02006561YS02001783 CONDUIT   1041.49     0  02:48      2.15    0.54    1.00
  YS02001783YS02001784 CONDUIT   1041.15     0  02:48      2.07    1.44    1.00
  YS02001784YS02001785 CONDUIT   1042.13     0  02:48      2.07    2.43    1.00
  YS02001788YS02001790 CONDUIT   1041.61     0  02:48      2.44    0.77    1.00
  YS02001790YS02001791 CONDUIT   1041.83     0  02:48      2.90    1.13    1.00
  YS02001791YS02001793 CONDUIT   1041.91     0  02:48      5.76    0.45    1.00
  YS02001910YS02001907 CONDUIT    585.45     0  03:02      0.75    0.33    1.00
  YS02001786YS02001788 CONDUIT   1041.92     0  02:48      2.31    2.01    1.00
  YS02001915YS02001910 CONDUIT    585.04     0  03:02      0.74    0.29    1.00
  YS02001918YS02001915 CONDUIT    265.05     0  02:50      0.44    0.15    1.00
  YS02001923YS02001920 CONDUIT    260.68     0  02:50      0.75    0.12    1.00
  YS02001926YS02001923 CONDUIT    240.49     0  02:50      0.86    0.34    0.94
  YS02001929YS02001926 CONDUIT    203.12     0  03:02      0.92    0.10    0.83
  YS02001920YS02001918 CONDUIT    264.49     0  02:50      0.72    0.26    1.00
  YS02001629YS02163301 CONDUIT    216.35     0  02:30      0.28    0.27    1.00
  YS02001619YS02001622 CONDUIT    381.77     0  03:01      0.59    0.56    1.00
  YS02001622YS02001625 CONDUIT    381.37     0  03:01      0.49    0.20    1.00
  YS02001625YS02001629 CONDUIT    195.89     0  02:39      0.25    0.09    1.00
  YS02163301YS02001633 CONDUIT    217.13     0  02:30      0.28    0.20    1.00
  YS02163601YS02164001 CONDUIT    411.94     0  02:39      0.52    0.36    1.00
  YS02164001YS02001641 CONDUIT    411.90     0  02:39      0.52    0.56    1.00
  YS02001641YS02001644 CONDUIT    411.94     0  02:39      0.52    1.33    1.00
  YS02001647YS02001649 CONDUIT    680.65     0  03:01      0.87    0.36    1.00
  YS02006553YS02006556 CONDUIT    709.77     0  03:46      0.90    0.61    1.00
  YS02006556YS02006558 CONDUIT    709.88     0  03:46      0.90    0.56    1.00
  YSB6556YSB1171       CONDUIT     42.85     0  03:02      0.13    0.04    0.82
  YS02001907YS02006553 CONDUIT    709.71     0  03:46      0.79    0.83    1.00
  YS02006558YS02006561 CONDUIT   1041.05     0  02:48      3.68    2.30    1.00
  YS02001633YS02163601 CONDUIT    411.97     0  02:39      0.52    0.43    1.00
  YS02001644YS02001647 CONDUIT    681.52     0  03:01      0.87    0.40    1.00
  YS02001745YS02001748 CONDUIT    553.47     0  02:32      1.45    0.21    0.97
  YS02001748YS02001751 CONDUIT    442.45     0  03:01      1.03    0.22    1.00
  YS02001751YS02001754 CONDUIT    442.82     0  03:01      0.88    0.21    1.00
  YS02001754YS02001757 CONDUIT    442.64     0  03:01      0.56    0.18    1.00
  YS02001882YS02001884 CONDUIT     22.08     0  02:30      0.12    0.03    1.00
  YS02001884YS02001887 CONDUIT     50.91     0  02:30      0.08    0.07    1.00
  YS02001890YS02001895 CONDUIT    517.50     0  02:59      0.66    0.24    1.00
  YS02001895YS02001898 CONDUIT    517.82     0  02:59      0.66    0.90    1.00
  YS02001898YS02001901 CONDUIT    517.96     0  02:59      0.66    0.33    1.00
  YS02001901YS02001904 CONDUIT    517.67     0  02:58      0.66    0.80    1.00
  YS02001904YS02001907 CONDUIT    518.12     0  02:59      0.66    0.18    1.00
  YS02001887YS02001890 CONDUIT    680.26     0  03:01      0.87    1.16    1.00
  YS02001652YS02001649 CONDUIT    501.37     0  03:01      0.64    0.25    1.00
  YS02001655YS02001652 CONDUIT    501.03     0  03:01      0.94    0.24    1.00
  YS02001658YS02001655 CONDUIT    500.12     0  03:01      1.18    0.21    1.00
  YS02001661YS02001658 CONDUIT    586.01     0  02:30      1.52    0.23    1.00
  YS02001664YS02001661 CONDUIT    674.68     0  02:43      1.43    0.21    0.77
  YSB1154YSB6556       CONDUIT     43.27     0  03:01      0.18    0.08    0.73
  YSB1174YSB1171       CONDUIT     36.64     0  03:01      0.11    0.06    0.85
  YSB1171HS02004479    CONDUIT     75.43     0  03:02      0.54    0.05    0.68
  HS02004881HS02006253 CONDUIT    140.49     0  03:01      2.22    0.03    0.54
  YS02001793JiankangQianchi CONDUIT   1041.76     0  02:48     16.71    0.08    1.00
  YS02001757CaochengTiaoxuchi CONDUIT   1678.16     0  02:40      2.17    0.74    1.00
  WSF200WS02003060     CONDUIT    939.33     0  03:04      1.93    0.21    0.45
  1                    CONDUIT   1335.73     0  03:07      3.59    0.47    0.48
  CC-Pump-1            PUMP       200.00     0  03:00              1.00
  CC-Pump-2            PUMP       200.00     0  03:20              1.00
  JK-Pump-1            PUMP       300.00     0  00:00              1.00
  JK-Pump-2            PUMP       683.00     0  02:40              1.00
  XR-Pump-1            PUMP        95.00     0  00:00              1.00
  XR-Pump-2            PUMP        95.00     0  00:00              1.00
  XR-Pump-3            PUMP        95.00     0  00:00              1.00
  XR-Pump-4            PUMP        95.00     0  00:00              1.00
  
  
  ***************************
  Flow Classification Summary
  ***************************
  
  -------------------------------------------------------------------------------------
                      Adjusted    ---------- Fraction of Time in Flow Class ---------- 
                       /Actual         Up    Down  Sub   Sup   Up    Down  Norm  Inlet 
  Conduit               Length    Dry  Dry   Dry   Crit  Crit  Crit  Crit  Ltd   Ctrl  
  -------------------------------------------------------------------------------------
  WS02003066WSF200        1.00   0.01  0.02  0.00  0.00  0.97  0.00  0.00  0.56  0.00
  WS02006287WS02006284    1.00   0.03  0.01  0.00  0.63  0.32  0.00  0.00  0.65  0.00
  WS02006284WS02006280    1.00   0.04  0.00  0.00  0.00  0.00  0.00  0.96  0.00  0.00
  WS02006280WS02006229    1.00   0.04  0.00  0.00  0.01  0.02  0.00  0.93  0.01  0.00
  WS02006229WS02006228    1.00   0.00  0.00  0.00  1.00  0.00  0.00  0.00  0.00  0.00
  WS02006256WS02006235    1.00   0.00  0.00  0.00  1.00  0.00  0.00  0.00  0.00  0.00
  WS02006253WS02006251    1.00   0.02  0.02  0.00  0.96  0.00  0.01  0.00  0.00  0.00
  WS02006252WS02006251    1.00   0.18  0.00  0.00  0.14  0.00  0.68  0.00  0.00  0.00
  WS02006251WS02006249    1.00   0.00  0.00  0.00  1.00  0.00  0.00  0.00  0.23  0.00
  WS02006249WS02006248    1.00   0.00  0.01  0.00  0.91  0.00  0.08  0.00  0.00  0.00
  WS02006248WS02006247    1.00   0.01  0.00  0.00  0.99  0.00  0.00  0.00  0.14  0.00
  WS02006247WS02006245    1.00   0.00  0.00  0.00  0.99  0.00  0.00  0.00  0.00  0.00
  WS02006245WS02006243    1.00   0.00  0.00  0.00  0.96  0.00  0.00  0.03  0.00  0.00
  WS02006243WS02006242    1.00   0.00  0.00  0.00  1.00  0.00  0.00  0.00  0.21  0.00
  WS02006242WS02006240    1.00   0.00  0.00  0.00  1.00  0.00  0.00  0.00  0.00  0.00
  WS02006240WS02006239    1.00   0.00  0.00  0.00  0.95  0.00  0.00  0.05  0.01  0.00
  WS02006239WS02006238    1.00   0.00  0.00  0.00  1.00  0.00  0.00  0.00  0.13  0.00
  WS02006238WS02006235    1.00   0.00  0.00  0.00  1.00  0.00  0.00  0.00  0.00  0.00
  WS02006235WS02006234    1.00   0.00  0.00  0.00  0.96  0.00  0.04  0.00  0.00  0.00
  WS02006234WS02006232    1.00   0.00  0.00  0.00  1.00  0.00  0.00  0.00  0.09  0.00
  WS02006232WS02006231    1.00   0.00  0.00  0.00  1.00  0.00  0.00  0.00  0.00  0.00
  WS02006231WS02006230    1.00   0.00  0.00  0.00  0.74  0.00  0.26  0.00  0.00  0.00
  WS02006230WS02006229    1.00   0.00  0.00  0.00  1.00  0.00  0.00  0.00  0.00  0.00
  WS02006228WS02006109    1.00   0.00  0.00  0.00  1.00  0.00  0.00  0.00  0.00  0.00
  WS02006116WS02004401    1.00   0.01  0.00  0.00  0.99  0.00  0.00  0.00  0.00  0.00
  WS02006115WS02006116    1.00   0.01  0.00  0.00  0.99  0.00  0.00  0.00  0.00  0.00
  WS02006113WS02006111    1.00   0.01  0.00  0.00  0.04  0.96  0.00  0.00  0.16  0.00
  WS02006112WS02006115    1.00   0.01  0.00  0.00  0.99  0.00  0.00  0.00  0.00  0.00
  WS02006111WS02006112    1.00   0.01  0.00  0.00  0.99  0.00  0.00  0.00  0.87  0.00
  WS02006110WS02006113    1.00   0.00  0.00  0.00  0.99  0.00  0.00  0.00  0.00  0.00
  WS02006109WS02006110    1.00   0.00  0.00  0.00  0.99  0.00  0.00  0.00  0.00  0.00
  WS02004411WS02004412    1.00   0.02  0.00  0.00  0.98  0.00  0.00  0.00  0.00  0.00
  WS02004401WS02004402    1.00   0.01  0.00  0.00  0.99  0.00  0.00  0.00  0.00  0.00
  WS02004413WS02003067    1.00   0.02  0.01  0.00  0.00  0.00  0.97  0.00  0.00  0.00
  WS02004412WS02004413    1.00   0.02  0.00  0.00  0.98  0.00  0.00  0.00  0.01  0.00
  WS02004410WS02004411    1.00   0.02  0.00  0.00  0.98  0.00  0.00  0.00  0.00  0.00
  WS02004409WS02004410    1.00   0.02  0.00  0.00  0.98  0.00  0.00  0.00  0.02  0.00
  WS02004407WS02004409    1.00   0.02  0.00  0.00  0.98  0.00  0.00  0.00  0.95  0.00
  WS02004406WS02004407    1.00   0.00  0.02  0.00  0.98  0.00  0.00  0.00  0.00  0.00
  WS02004405WS02004406    1.00   0.00  0.00  0.00  1.00  0.00  0.00  0.00  0.00  0.00
  WS02004404WS02004405    1.00   0.00  0.00  0.00  1.00  0.00  0.00  0.00  0.00  0.00
  WS02004403WS02004404    1.00   0.00  0.01  0.00  0.99  0.00  0.00  0.00  0.00  0.00
  WS02004402WS02004403    1.00   0.01  0.00  0.00  0.99  0.00  0.00  0.00  0.00  0.00
  WS02004139WS02001211    1.00   0.00  0.00  0.00  1.00  0.00  0.00  0.00  0.00  0.00
  WS02004138WS02004139    1.00   0.00  0.00  0.00  1.00  0.00  0.00  0.00  1.00  0.00
  WS02003067WS02003066    1.00   0.03  0.00  0.00  0.97  0.00  0.00  0.00  0.00  0.00
  WS02001213WS02003059    1.00   0.00  0.00  0.00  1.00  0.00  0.00  0.00  0.00  0.00
  WS02001212WS02001213    1.00   0.00  0.00  0.00  0.93  0.00  0.07  0.00  0.00  0.00
  WS02001211WS02001212    1.00   0.00  0.00  0.00  1.00  0.00  0.00  0.00  0.00  0.00
  WS02003072WS02003073    1.00   0.00  0.00  0.00  0.00  0.00  0.00  1.00  0.00  0.00
  WS02003069WS02003072    1.00   0.00  0.00  0.00  1.00  0.00  0.00  0.00  0.11  0.00
  WS02003060WS02003069    1.00   0.00  0.00  0.00  0.99  0.01  0.00  0.00  0.09  0.00
  WS02003059WS02003060    1.00   0.00  0.00  0.00  1.00  0.00  0.00  0.00  0.01  0.00
  HS02004901HS02004770    1.00   0.04  0.00  0.00  0.96  0.00  0.00  0.00  0.00  0.00
  HS02004876HS02004881    1.00   0.01  0.00  0.00  0.92  0.07  0.00  0.00  0.00  0.00
  HS02004870HS02004876    1.00   0.00  0.00  0.00  0.99  0.00  0.00  0.00  0.95  0.00
  HS02004842HS02004848    1.00   0.00  0.04  0.00  0.96  0.00  0.00  0.00  0.54  0.00
  HS02004837HS02004842    1.00   0.00  0.00  0.00  1.00  0.00  0.00  0.00  0.11  0.00
  HS02004830HS02004837    1.00   0.00  0.00  0.00  1.00  0.00  0.00  0.00  0.99  0.00
  HS02004824HS02004830    1.00   0.00  0.00  0.00  1.00  0.00  0.00  0.00  0.01  0.00
  HS02004817HS02004824    1.00   0.00  0.00  0.00  1.00  0.00  0.00  0.00  0.97  0.00
  HS02004770HS02004777    1.00   0.00  0.04  0.00  0.96  0.00  0.00  0.00  0.03  0.00
  HS02004799HS02004480    1.00   0.00  0.01  0.00  0.95  0.00  0.03  0.00  0.00  0.00
  HS02004792HS02004799    1.00   0.00  0.00  0.00  1.00  0.00  0.00  0.00  0.98  0.00
  HS02004788HS02004792    1.00   0.00  0.00  0.00  1.00  0.00  0.00  0.00  0.98  0.00
  HS02004785HS02004788    1.00   0.00  0.00  0.00  1.00  0.00  0.00  0.00  0.00  0.00
  HS02004777HS02004785    1.00   0.00  0.00  0.00  1.00  0.00  0.00  0.00  0.12  0.00
  HS02004480HS02004478    1.00   0.04  0.00  0.00  0.72  0.00  0.00  0.24  0.00  0.00
  HS02004479HS02004480    1.00   0.01  0.00  0.00  0.99  0.00  0.00  0.00  0.12  0.00
  HS02004862HS02004870    1.00   0.00  0.00  0.00  1.00  0.00  0.00  0.00  0.04  0.00
  HS02004848HS02004852    1.00   0.04  0.00  0.00  0.96  0.00  0.00  0.00  0.64  0.00
  HS02004856HS02004862    1.00   0.00  0.05  0.00  0.95  0.00  0.00  0.00  0.83  0.00
  HS02004852HS02004856    1.00   0.04  0.00  0.00  0.96  0.00  0.00  0.00  0.80  0.00
  HS02004802HS02004478    1.00   0.04  0.00  0.00  0.96  0.00  0.00  0.00  0.02  0.00
  HS02004478WS02006287    1.00   0.05  0.00  0.00  0.78  0.17  0.00  0.00  0.65  0.00
  HS02004817HS02004807    1.00   0.00  0.04  0.00  0.96  0.00  0.00  0.00  0.01  0.00
  HS02004807HS02004802    1.00   0.04  0.00  0.00  0.96  0.00  0.00  0.00  0.00  0.00
  YS02001759YS02001757    1.00   0.00  0.00  0.00  1.00  0.00  0.00  0.00  0.16  0.00
  YS02001762YS02001759    1.00   0.00  0.00  0.00  1.00  0.00  0.00  0.00  0.03  0.00
  YS02001765YS02001762    1.00   0.00  0.00  0.00  1.00  0.00  0.00  0.00  0.14  0.00
  YS02001770YS02001767    1.00   0.00  0.00  0.00  1.00  0.00  0.00  0.00  0.00  0.00
  YS02001774YS02001770    1.00   0.00  0.04  0.00  0.96  0.00  0.00  0.00  0.03  0.00
  YS02001779YS02001774    1.00   0.00  0.00  0.00  1.00  0.00  0.00  0.00  0.19  0.00
  YS02001649YS02001757    1.00   0.00  0.00  0.00  1.00  0.00  0.00  0.00  0.16  0.00
  YS02001767YS02001765    1.00   0.00  0.00  0.00  1.00  0.00  0.00  0.00  0.00  0.00
  YS02006561YS02001783    1.00   0.05  0.00  0.00  0.36  0.59  0.00  0.00  0.47  0.00
  YS02001783YS02001784    1.00   0.00  0.05  0.00  0.95  0.00  0.00  0.00  0.00  0.00
  YS02001784YS02001785    1.00   0.00  0.00  0.00  1.00  0.00  0.00  0.00  0.18  0.00
  YS02001788YS02001790    1.00   0.00  0.00  0.00  0.42  0.58  0.00  0.00  0.37  0.00
  YS02001790YS02001791    1.00   0.00  0.00  0.00  0.38  0.62  0.00  0.00  0.46  0.00
  YS02001791YS02001793    1.00   0.00  0.00  0.00  0.40  0.60  0.00  0.00  0.02  0.00
  YS02001910YS02001907    1.00   0.00  0.00  0.00  0.99  0.00  0.00  0.01  0.12  0.00
  YS02001786YS02001788    1.00   0.00  0.00  0.00  0.40  0.60  0.00  0.00  0.00  0.00
  YS02001915YS02001910    1.00   0.00  0.00  0.00  0.99  0.01  0.00  0.00  0.16  0.00
  YS02001918YS02001915    1.00   0.00  0.00  0.00  0.99  0.01  0.00  0.00  0.54  0.00
  YS02001923YS02001920    1.00   0.00  0.00  0.00  1.00  0.00  0.00  0.00  0.82  0.00
  YS02001926YS02001923    1.00   0.00  0.02  0.00  0.15  0.00  0.83  0.00  0.00  0.00
  YS02001929YS02001926    1.00   0.00  0.04  0.00  0.96  0.00  0.00  0.00  0.74  0.00
  YS02001920YS02001918    1.00   0.00  0.00  0.00  1.00  0.00  0.00  0.00  0.00  0.00
  YS02001629YS02163301    1.00   0.04  0.00  0.00  0.95  0.00  0.00  0.00  0.00  0.00
  YS02001619YS02001622    1.00   0.04  0.00  0.00  0.96  0.00  0.00  0.00  0.00  0.00
  YS02001622YS02001625    1.00   0.04  0.00  0.00  0.96  0.00  0.00  0.00  0.05  0.00
  YS02001625YS02001629    1.00   0.04  0.02  0.00  0.93  0.00  0.02  0.00  0.00  0.00
  YS02163301YS02001633    1.00   0.00  0.04  0.00  0.96  0.00  0.00  0.00  0.00  0.00
  YS02163601YS02164001    1.00   0.00  0.03  0.00  0.97  0.00  0.00  0.00  0.00  0.00
  YS02164001YS02001641    1.00   0.00  0.02  0.00  0.97  0.00  0.00  0.00  0.06  0.00
  YS02001641YS02001644    1.00   0.00  0.00  0.00  1.00  0.00  0.00  0.00  0.00  0.00
  YS02001647YS02001649    1.00   0.00  0.05  0.00  0.95  0.00  0.00  0.00  0.01  0.00
  YS02006553YS02006556    1.00   0.01  0.00  0.00  0.99  0.00  0.00  0.00  0.03  0.00
  YS02006556YS02006558    1.00   0.00  0.00  0.00  1.00  0.00  0.00  0.00  0.00  0.00
  YSB6556YSB1171          1.00   0.02  0.02  0.00  0.96  0.00  0.00  0.00  0.00  0.00
  YS02001907YS02006553    1.00   0.00  0.01  0.00  0.99  0.00  0.00  0.00  0.00  0.00
  YS02006558YS02006561    1.00   0.05  0.00  0.00  0.15  0.79  0.00  0.00  0.46  0.00
  YS02001633YS02163601    1.00   0.00  0.00  0.00  1.00  0.00  0.00  0.00  0.15  0.00
  YS02001644YS02001647    1.00   0.00  0.05  0.00  0.95  0.00  0.00  0.00  0.00  0.00
  YS02001745YS02001748    1.00   0.00  0.00  0.00  0.90  0.01  0.00  0.09  0.04  0.00
  YS02001748YS02001751    1.00   0.00  0.00  0.00  0.97  0.03  0.00  0.00  0.15  0.00
  YS02001751YS02001754    1.00   0.00  0.00  0.00  0.94  0.00  0.00  0.06  0.02  0.00
  YS02001754YS02001757    1.00   0.00  0.00  0.00  1.00  0.00  0.00  0.00  0.18  0.00
  YS02001882YS02001884    1.00   0.04  0.00  0.00  0.96  0.00  0.00  0.00  0.00  0.00
  YS02001884YS02001887    1.00   0.02  0.01  0.00  0.97  0.00  0.00  0.00  0.00  0.00
  YS02001890YS02001895    1.00   0.00  0.04  0.00  0.95  0.00  0.00  0.00  0.00  0.00
  YS02001895YS02001898    1.00   0.05  0.00  0.00  0.94  0.00  0.01  0.00  0.00  0.00
  YS02001898YS02001901    1.00   0.05  0.00  0.00  0.95  0.00  0.00  0.00  0.01  0.00
  YS02001901YS02001904    1.00   0.05  0.00  0.00  0.95  0.00  0.00  0.00  0.00  0.00
  YS02001904YS02001907    1.00   0.00  0.05  0.00  0.95  0.00  0.00  0.00  0.00  0.00
  YS02001887YS02001890    1.00   0.00  0.00  0.00  0.99  0.00  0.01  0.00  0.00  0.00
  YS02001652YS02001649    1.00   0.00  0.00  0.00  1.00  0.00  0.00  0.00  0.17  0.00
  YS02001655YS02001652    1.00   0.00  0.00  0.00  0.94  0.00  0.00  0.06  0.02  0.00
  YS02001658YS02001655    1.00   0.00  0.04  0.00  0.93  0.03  0.00  0.00  0.10  0.00
  YS02001661YS02001658    1.00   0.04  0.00  0.00  0.90  0.06  0.00  0.00  0.11  0.00
  YS02001664YS02001661    1.00   0.04  0.00  0.00  0.92  0.05  0.00  0.00  0.20  0.00
  YSB1154YSB6556          1.00   0.04  0.00  0.00  0.96  0.00  0.00  0.00  0.02  0.00
  YSB1174YSB1171          1.00   0.02  0.01  0.00  0.97  0.00  0.00  0.00  0.00  0.00
  YSB1171HS02004479       1.00   0.02  0.00  0.00  0.98  0.00  0.00  0.00  0.10  0.00
  HS02004881HS02006253    1.00   0.02  0.00  0.00  0.69  0.02  0.00  0.27  0.54  0.00
  YS02001793JiankangQianchi    1.00   0.00  0.00  0.00  0.62  0.38  0.00  0.00  0.38  0.00
  YS02001757CaochengTiaoxuchi    1.00   0.00  0.07  0.00  0.93  0.00  0.00  0.00  0.00  0.00
  WSF200WS02003060        1.00   0.00  0.01  0.00  0.99  0.00  0.00  0.00  0.36  0.00
  1                       1.00   0.00  0.00  0.00  0.00  1.00  0.00  0.00  0.52  0.00
  
  
  *************************
  Conduit Surcharge Summary
  *************************
  
  ----------------------------------------------------------------------------
                                                           Hours        Hours 
                         --------- Hours Full --------   Above Full   Capacity
  Conduit                Both Ends  Upstream  Dnstream   Normal Flow   Limited
  ----------------------------------------------------------------------------
  WS02006229WS02006228        3.99      4.18      3.99      4.95         3.99
  WS02006256WS02006235        6.14      6.14      6.84      4.50         0.01
  WS02006253WS02006251        2.17      2.17      2.22      0.01         0.02
  WS02006252WS02006251        1.88      1.88      2.49      2.11         0.01
  WS02006251WS02006249        2.18      2.19      2.24      1.40         1.25
  WS02006249WS02006248        2.18      2.18      2.24      3.32         0.01
  WS02006248WS02006247        2.23      2.23      2.36      0.01         0.01
  WS02006247WS02006245        2.33      2.40      2.33      3.96         2.20
  WS02006245WS02006243        2.37      2.38      2.48      0.45         0.48
  WS02006243WS02006242        2.54      2.54      3.05      0.01         0.01
  WS02006242WS02006240        2.87      2.87      3.22      1.99         0.01
  WS02006240WS02006239        2.90      2.92      3.03      0.94         0.72
  WS02006239WS02006238        3.24      3.28      3.43      1.06         0.85
  WS02006238WS02006235        3.35      3.35      3.68      0.01         0.01
  WS02006235WS02006234        2.93      2.93      3.29      5.96         0.01
  WS02006234WS02006232        3.12      3.12      3.89      0.82         0.81
  WS02006232WS02006231        2.07      2.07      3.89      1.15         0.01
  WS02006231WS02006230        1.66      1.66      2.14      6.18         0.01
[...]
  YS02001770YS02001767        5.69      5.69      5.69      0.20         0.65
  YS02001774YS02001770        5.67      5.67      5.74      0.01         0.01
  YS02001779YS02001774        5.56      5.56      5.74      0.01         0.01
  YS02001649YS02001757        5.75      5.75      5.86      0.01         0.01
  YS02001767YS02001765        5.69      5.69      5.72      0.01         0.01
  YS02006561YS02001783        0.91      0.91      1.39      0.01         0.01
  YS02001783YS02001784        1.36      1.39      1.37      1.46         1.28
  YS02001784YS02001785        1.31      1.37      1.31      2.51         1.31
  YS02001788YS02001790        1.15      1.15      2.06      0.01         0.01
  YS02001790YS02001791        2.06      2.06      2.14      1.16         1.15
  YS02001791YS02001793        2.14      2.14      2.46      0.01         0.01
  YS02001910YS02001907        1.28      1.28      1.91      0.01         0.01
  YS02001786YS02001788        1.14      1.31      1.15      2.07         1.14
  YS02001915YS02001910        1.10      1.10      1.28      0.01         0.01
  YS02001918YS02001915        0.89      0.89      1.10      0.01         0.01
  YS02001923YS02001920        0.74      0.74      0.92      0.01         0.01
  YS02001920YS02001918        0.89      0.89      0.92      0.01         0.01
  YS02001629YS02163301        5.67      5.67      5.69      0.01         0.01
  YS02001619YS02001622        5.37      5.37      5.41      0.01         0.01
  YS02001622YS02001625        5.41      5.41      5.64      0.01         0.01
  YS02001625YS02001629        5.38      5.38      5.64      0.01         0.01
  YS02163301YS02001633        5.69      5.69      5.72      0.01         0.01
  YS02163601YS02164001        5.72      5.72      5.75      0.01         0.01
  YS02164001YS02001641        5.72      5.72      5.73      0.01         0.03
  YS02001641YS02001644        5.73      5.73      5.73      1.72         1.94
  YS02001647YS02001649        5.62      5.62      5.75      0.01         0.01
  YS02006553YS02006556        1.51      1.51      1.98      0.01         0.01
  YS02006556YS02006558        1.69      1.69      2.04      0.01         0.01
  YSB6556YSB1171              0.01      0.01      0.07      0.01         0.01
  YS02001907YS02006553        2.53      2.53      2.75      0.01         0.01
  YS02006558YS02006561        1.05      1.47      1.05      2.36         1.05
  YS02001633YS02163601        5.71      5.71      5.75      0.01         0.01
  YS02001644YS02001647        5.62      5.62      5.73      0.01         0.01
  YS02001745YS02001748        0.01      0.01      5.22      0.01         0.01
  YS02001748YS02001751        5.27      5.27      5.37      0.01         0.01
  YS02001751YS02001754        5.36      5.36      5.57      0.01         0.01
  YS02001754YS02001757        5.61      5.61      5.86      0.01         0.01
  YS02001882YS02001884        1.12      1.12      1.15      0.01         0.01
  YS02001884YS02001887        1.19      1.19      1.21      0.01         0.01
  YS02001890YS02001895        1.08      1.08      1.30      0.01         0.01
  YS02001895YS02001898        1.07      1.07      1.08      0.01         0.01
  YS02001898YS02001901        1.09      1.09      1.18      0.01         0.01
  YS02001901YS02001904        1.16      1.16      1.18      0.01         0.01
  YS02001904YS02001907        1.16      1.16      1.99      0.01         0.01
  YS02001887YS02001890        1.24      1.24      1.27      0.16         0.01
  YS02001652YS02001649        5.63      5.63      5.75      0.01         0.01
  YS02001655YS02001652        5.39      5.39      5.61      0.01         0.01
  YS02001658YS02001655        5.25      5.25      5.39      0.01         0.01
  YS02001661YS02001658        0.15      0.15      5.25      0.01         0.01
  YS02001664YS02001661        0.01      0.01      1.14      0.01         0.01
  HS02004881HS02006253        0.01      0.01      1.31      0.01         0.01
  YS02001793JiankangQianchi        2.38      2.38      3.80      0.01         0.01
  YS02001757CaochengTiaoxuchi        5.11      5.11      5.86      0.01         0.01
  
  
  ***************
  Pumping Summary
  ***************
  
  ---------------------------------------------------------------------------------------------------------
                                                  Min       Avg       Max     Total     Power    % Time Off
                        Percent   Number of      Flow      Flow      Flow    Volume     Usage    Pump Curve
  Pump                 Utilized   Start-Ups       LPS       LPS       LPS  10^6 ltr     Kw-hr    Low   High
  ---------------------------------------------------------------------------------------------------------
  CC-Pump-1               63.82           3      0.00    157.91    200.00     2.820      2.94    0.0    0.0
  CC-Pump-2               42.55           5      0.00    106.89    200.00     1.500      1.96    0.0    0.0
  JK-Pump-1               61.69           5      0.00    221.13    300.00     3.866     59.82    0.0    0.0
  JK-Pump-2               55.31           4      0.00    413.96    683.00     6.739     90.52    0.0   95.6
  XR-Pump-1               97.88           2      0.00     94.23     95.00     2.565     26.12    0.0    0.0
  XR-Pump-2               97.88           2      0.00     94.23     95.00     2.565     26.12    0.0    0.0
  XR-Pump-3               95.75           3      0.00     93.73     95.00     2.451     23.51    0.0    0.0
  XR-Pump-4               95.75           3      0.00     93.73     95.00     2.451     23.51    0.0    0.0
  
  
  ***************************
  Link Pollutant Load Summary
  ***************************
  
  ------------------------------------------------------------------------------------------
                                 COD            SS            TN            TP         NH4-N
  Link                            kg            kg            kg            kg            kg
  ------------------------------------------------------------------------------------------
  WS02003066WSF200           872.338      1632.228        22.696         1.979        11.935
  WS02006287WS02006284       319.513       608.191        10.315         1.015         5.679
  WS02006284WS02006280       320.005       609.003        10.361         1.021         5.708
  WS02006280WS02006229       319.946       608.883        10.359         1.020         5.706
  WS02006229WS02006228       877.431      1641.306        22.276         1.908        11.636
  WS02006256WS02006235       197.523       365.947         4.349         0.339         2.199
  WS02006253WS02006251        63.748       125.079         1.402         0.105         0.695
  WS02006252WS02006251       375.640       689.627         7.803         0.561         3.835
  WS02006251WS02006249       428.182       794.252         8.995         0.653         4.432
  WS02006249WS02006248       374.823       693.259         7.893         0.573         3.891
  WS02006248WS02006247       374.032       691.846         7.876         0.571         3.883
  WS02006247WS02006245       373.189       690.324         7.857         0.570         3.873
  WS02006245WS02006243       372.129       688.490         7.830         0.568         3.859
  WS02006243WS02006242       370.994       686.438         7.808         0.566         3.849
  WS02006242WS02006240       370.438       685.435         7.802         0.566         3.847
  WS02006240WS02006239       370.783       686.013         7.824         0.569         3.860
  WS02006239WS02006238       372.165       688.220         7.893         0.577         3.901
  WS02006238WS02006235       372.666       688.867         7.923         0.580         3.919
  WS02006235WS02006234       563.247      1042.700        12.050         0.898         5.997
  WS02006234WS02006232       562.237      1040.856        12.035         0.897         5.990
  WS02006232WS02006231       561.213      1039.014        12.012         0.896         5.978
  WS02006231WS02006230       560.193      1037.165        11.992         0.894         5.969
  WS02006230WS02006229       558.718      1034.593        11.952         0.891         5.948
  WS02006228WS02006109       876.027      1638.779        22.245         1.906        11.620
  WS02006116WS02004401       886.338      1657.392        23.016         2.003        12.095
  WS02006115WS02006116       888.113      1660.546        23.061         2.007        12.119
  WS02006113WS02006111       880.519      1645.222        22.954         1.999        12.074
  WS02006112WS02006115       889.858      1663.610        23.114         2.012        12.147
  WS02006111WS02006112       879.758      1643.897        22.935         1.998        12.064
  WS02006110WS02006113       881.440      1646.852        22.982         2.002        12.089
  WS02006109WS02006110       883.070      1649.744        23.033         2.006        12.117
  WS02004411WS02004412       875.863      1638.463        22.820         1.991        12.004
  WS02004401WS02004402       884.715      1654.523        22.968         1.999        12.069
  WS02004413WS02003067       873.023      1633.492        22.713         1.980        11.943
  WS02004412WS02004413       874.584      1636.201        22.780         1.988        11.982
  WS02004410WS02004411       876.993      1640.484        22.852         1.994        12.021
  WS02004409WS02004410       878.186      1642.605        22.889         1.998        12.041
  WS02004407WS02004409       879.224      1644.470        22.914         2.000        12.054
  WS02004406WS02004407       879.585      1645.155        22.916         1.999        12.054
  WS02004405WS02004406       881.230      1648.067        22.974         2.005        12.086
  WS02004404WS02004405       882.369      1650.171        22.978         2.004        12.084
  WS02004403WS02004404       882.023      1649.751        22.891         1.992        12.028
  WS02004402WS02004403       883.267      1651.950        22.929         1.996        12.049
  WS02004139WS02001211      1393.817      2313.916       113.208        13.819        69.783
  WS02004138WS02004139      1400.172      2324.534       113.698        13.879        70.084
  WS02003067WS02003066       872.564      1632.633        22.705         1.980        11.939
  WS02001213WS02003059      1426.550      2365.304       116.613        14.249        71.923
  WS02001212WS02001213      1435.783      2380.610       117.359        14.340        72.383
  WS02001211WS02001212      1438.034      2384.288       117.553        14.364        72.504
  WS02003072WS02003073      2398.795      4156.156       149.273        17.480        90.101
  WS02003069WS02003072      2403.888      4164.478       149.695        17.531        90.362
  WS02003060WS02003069      2406.430      4168.879       149.836        17.547        90.445
  WS02003059WS02003060      1423.257      2359.733       116.377        14.221        71.780
  HS02004901HS02004770        13.094        25.474         0.248         0.019         0.116
  HS02004876HS02004881        45.519        90.357         1.000         0.073         0.491
  HS02004870HS02004876        34.384        68.109         0.798         0.060         0.395
  HS02004842HS02004848         6.457        12.343         0.134         0.009         0.062
  HS02004837HS02004842        11.056        19.636         0.603         0.068         0.356
  HS02004830HS02004837        70.299       122.729         4.643         0.552         2.827
  HS02004824HS02004830        71.070       123.985         4.715         0.561         2.871
  HS02004817HS02004824        97.166       176.413         5.254         0.596         3.135
  HS02004770HS02004777        49.663        97.715         1.021         0.069         0.472
  HS02004799HS02004480       162.332       310.856         4.263         0.379         2.209
  HS02004792HS02004799       147.278       280.134         4.028         0.367         2.105
  HS02004788HS02004792        82.819       157.693         2.666         0.255         1.440
  HS02004785HS02004788        51.123       100.053         1.172         0.089         0.567
  HS02004777HS02004785        50.447        98.946         1.112         0.081         0.530
  HS02004480HS02004478       204.836       395.222         4.972         0.429         2.543
  HS02004479HS02004480        46.129        90.116         1.037         0.091         0.538
  HS02004862HS02004870        25.801        50.343         0.628         0.050         0.314
  HS02004848HS02004852        10.252        19.885         0.210         0.014         0.097
  HS02004856HS02004862        17.525        34.751         0.350         0.023         0.164
  HS02004852HS02004856        10.256        19.890         0.210         0.014         0.097
  HS02004802HS02004478       115.345       214.061         5.398         0.592         3.169
  HS02004478WS02006287       319.724       608.556        10.332         1.017         5.689
  HS02004817HS02004807        95.862       174.321         5.130         0.581         3.057
  HS02004807HS02004802       115.602       214.462         5.430         0.596         3.189
  YS02001759YS02001757       371.280       683.997         7.377         0.514         3.603
  YS02001762YS02001759       150.348       276.150         3.225         0.229         1.601
  YS02001765YS02001762       150.758       277.438         3.252         0.232         1.617
  YS02001770YS02001767       150.252       277.822         3.058         0.203         1.488
  YS02001774YS02001770       244.359       476.254         4.707         0.311         2.274
  YS02001779YS02001774       243.490       474.530         4.793         0.325         2.334
  YS02001649YS02001757       336.453       603.473         6.789         0.470         3.265
  YS02001767YS02001765       151.393       278.999         3.281         0.234         1.633
  YS02006561YS02001783      1025.552      1901.293        21.493         1.604        10.695
  YS02001783YS02001784      1025.432      1901.110        21.489         1.604        10.693
  YS02001784YS02001785      1032.742      1912.819        22.202         1.693        11.139
  YS02001788YS02001790      1033.310      1913.744        22.273         1.702        11.184
  YS02001790YS02001791      1034.266      1915.281        22.372         1.715        11.246
  YS02001791YS02001793      1034.166      1915.118        22.367         1.714        11.243
  YS02001910YS02001907       391.207       721.460         9.393         0.719         4.814
  YS02001786YS02001788      1032.919      1913.111        22.229         1.697        11.156
  YS02001915YS02001910       391.280       721.580         9.346         0.712         4.782
  YS02001918YS02001915       186.083       328.106         5.131         0.467         2.764
  YS02001923YS02001920       165.889       295.610         3.176         0.223         1.542
  YS02001926YS02001923       164.608       293.454         3.102         0.214         1.497
  YS02001929YS02001926       164.216       292.798         3.066         0.210         1.475
  YS02001920YS02001918       185.708       327.289         5.096         0.463         2.743
  YS02001629YS02163301        96.107       169.934         2.029         0.131         0.946
  YS02001619YS02001622       175.888       321.159         3.602         0.236         1.684
  YS02001622YS02001625       174.708       319.285         3.574         0.234         1.671
  YS02001625YS02001629        97.180       171.688         2.053         0.132         0.957
  YS02163301YS02001633        96.484       170.833         2.031         0.132         0.949
  YS02163601YS02164001       405.706       733.112         7.898         0.562         3.783
  YS02164001YS02001641       405.187       732.228         7.878         0.560         3.772
  YS02001641YS02001644       405.249       732.251         7.874         0.560         3.770
  YS02001647YS02001649       433.323       791.558         8.601         0.600         4.107
  YS02006553YS02006556       691.631      1271.715        14.867         1.138         7.482
  YS02006556YS02006558       691.547      1271.545        14.838         1.134         7.463
  YSB6556YSB1171              26.522        51.969         0.537         0.045         0.272
  YS02001907YS02006553       691.748      1271.953        14.875         1.139         7.487
  YS02006558YS02006561      1025.504      1901.197        21.492         1.604        10.694
  YS02001633YS02163601       406.429       734.237         7.879         0.558         3.768
  YS02001644YS02001647       440.251       803.870         8.712         0.608         4.158
  YS02001745YS02001748       249.758       466.992         5.481         0.379         2.723
  YS02001748YS02001751       248.070       463.721         5.544         0.390         2.771
  YS02001751YS02001754       247.311       462.440         5.555         0.393         2.781
  YS02001754YS02001757       248.075       463.584         5.719         0.416         2.888
  YS02001882YS02001884         3.076         5.317         0.062         0.005         0.031
  YS02001884YS02001887         7.180        12.700         0.141         0.011         0.070
  YS02001890YS02001895       450.985       846.493         8.302         0.624         4.049
  YS02001895YS02001898       450.849       846.331         8.296         0.624         4.046
  YS02001898YS02001901       450.668       846.031         8.292         0.623         4.044
  YS02001901YS02001904       450.517       845.823         8.298         0.625         4.049
  YS02001904YS02001907       450.707       846.109         8.351         0.632         4.083
  YS02001887YS02001890       468.266       880.761         8.645         0.653         4.223
  YS02001652YS02001649       198.360       369.212         3.989         0.287         1.871
  YS02001655YS02001652       198.890       370.075         4.003         0.288         1.878
  YS02001658YS02001655       198.382       369.279         3.915         0.277         1.821
  YS02001661YS02001658       201.637       375.095         3.981         0.281         1.852
  YS02001664YS02001661       218.095       402.167         4.353         0.307         2.022
  YSB1154YSB6556              26.085        51.272         0.486         0.038         0.239
  YSB1174YSB1171              18.022        35.563         0.361         0.029         0.181
  YSB1171HS02004479           46.093        90.060         1.040         0.092         0.540
  HS02004881HS02006253        51.773       103.220         1.109         0.080         0.543
  YS02001793JiankangQianchi      1035.028      1916.599        22.400         1.718        11.262
  YS02001757CaochengTiaoxuchi       638.057      1159.762        13.395         0.957         6.582
  WSF200WS02003060           872.053      1631.675        22.695         1.979        11.935
  1                         2405.798      4166.489       150.166        17.595        90.668
  CC-Pump-1                  245.515       450.876         5.097         0.366         2.505
  CC-Pump-2                  130.156       238.805         2.707         0.195         1.331
  JK-Pump-1                  258.065       485.193         5.380         0.406         2.682
  JK-Pump-2                  579.662      1091.600        12.031         0.905         5.991
  XR-Pump-1                  364.161       603.772        29.767         3.637        18.359
  XR-Pump-2                  364.161       603.772        29.767         3.637        18.359
  XR-Pump-3                  337.730       561.482        27.230         3.320        16.774
  XR-Pump-4                  337.730       561.482        27.230         3.320        16.774
  

  Analysis begun on:  Tue Jul 13 19:54:52 2021
  Analysis ended on:  Tue Jul 13 19:54:54 2021
  Total elapsed time: 00:00:02