
  EPA STORM WATER MANAGEMENT MODEL - VERSION 5.1 (Build 5.3.0.dev0)
  --------------------------------------------------------------

  WARNING 04: minimum elevation drop used for Conduit WS02004404WS02004405
  WARNING 03: negative offset ignored for Link YS02001904YS02001907
  
  *********************************************************
  NOTE: The summary statistics displayed in this report are
  based on results found at every computational time step,  
  not just on results from each reporting time step.
  *********************************************************
  
  ****************
  Analysis Options
  ****************
  Flow Units ............... LPS
  Process Models:
    Rainfall/Runoff ........ YES
    RDII ................... NO
    Snowmelt ............... NO
    Groundwater ............ NO
    Flow Routing ........... YES
    Ponding Allowed ........ NO
    Water Quality .......... YES
  Infiltration Method ...... HORTON
  Flow Routing Method ...... DYNWAVE
  Surcharge Method ......... EXTRAN
  Starting Date ............ 08/28/2015 08:00:00
  Ending Date .............. 08/28/2015 15:50:00
  Antecedent Dry Days ...... 8.0
  Report Time Step ......... 00:01:00
  Wet Time Step ............ 00:01:00
  Dry Time Step ............ 00:01:00
  Routing Time Step ........ 5.00 sec
  Variable Time Step ....... YES
  Maximum Trials ........... 8
  Number of Threads ........ 4
  Head Tolerance ........... 0.001500 m
  
  
  **************************        Volume         Depth
  Runoff Quantity Continuity     hectare-m            mm
  **************************     ---------       -------
  Total Precipitation ......         6.144        13.452
  Evaporation Loss .........         0.000         0.000
  Infiltration Loss ........         1.064         2.328
  Surface Runoff ...........         4.147         9.079
  Final Storage ............         0.935         2.047
  Continuity Error (%) .....        -0.020
  
  
  **************************           COD            SS            TN            TP         NH4-N
  Runoff Quality Continuity             kg            kg            kg            kg            kg
  **************************    ----------    ----------    ----------    ----------    ----------
  Initial Buildup ..........     41378.656     70582.865      1804.177       168.684      1032.807
  Surface Buildup ..........        21.799        40.924         2.400         0.218         1.395
  Wet Deposition ...........         0.000         0.000         0.000         0.000         0.000
  Sweeping Removal .........         0.000         0.000         0.000         0.000         0.000
  Infiltration Loss ........        97.311       184.943         1.849         0.130         0.881
  BMP Removal ..............         0.000         0.000         0.000         0.000         0.000
  Surface Runoff ...........      3769.819      7064.251        72.781         4.964        34.599
  Remaining Buildup ........     37531.916     63371.884      1731.919       163.806       998.709
  Continuity Error (%) .....         0.003         0.004         0.002         0.001         0.001
  
  
  **************************        Volume        Volume
  Flow Routing Continuity        hectare-m      10^6 ltr
  **************************     ---------     ---------
  Dry Weather Inflow .......         0.616         6.165
  Wet Weather Inflow .......         4.145        41.450
  Groundwater Inflow .......         0.000         0.000
  RDII Inflow ..............         0.000         0.000
  External Inflow ..........         0.102         1.024
  External Outflow .........         2.046        20.463
  Flooding Loss ............         2.358        23.577
  Evaporation Loss .........         0.000         0.000
  Exfiltration Loss ........         0.000         0.000
  Initial Stored Volume ....         0.076         0.761
  Final Stored Volume ......         0.658         6.578
  Continuity Error (%) .....        -2.467
  
  
  **************************           COD            SS            TN            TP         NH4-N
  Quality Routing Continuity            kg            kg            kg            kg            kg
  **************************    ----------    ----------    ----------    ----------    ----------
  Dry Weather Inflow .......      1541.201      2465.922       147.955        18.494        92.472
  Wet Weather Inflow .......      3768.805      7062.468        72.760         4.963        34.589
  Groundwater Inflow .......         0.000         0.000         0.000         0.000         0.000
  RDII Inflow ..............         0.000         0.000         0.000         0.000         0.000
  External Inflow ..........       183.418       293.469        17.608         2.201        11.005
  External Outflow .........      2431.636      4214.964       149.120        17.409        89.884
  Flooding Loss ............      2397.436      4468.923        62.093         5.453        32.715
  Exfiltration Loss ........         0.000         0.000         0.000         0.000         0.000
  Mass Reacted .............         0.000         0.000         0.000         0.000         0.000
  Initial Stored Mass ......         0.000         0.000         0.000         0.000         0.000
  Final Stored Mass ........       533.837       916.372        23.924         2.550        13.859
  Continuity Error (%) .....         2.376         2.256         1.337         0.958         1.165
  
  
  *************************
  Highest Continuity Errors
  *************************
  Node HS02004842 (13.41%)
  Node JK-storage (-11.44%)
  Node YS02001884 (9.95%)
  Node HS02004817 (2.53%)
  Node YSB1171 (2.46%)
  
  
  ***************************
  Time-Step Critical Elements
  ***************************
  Link WS02006252WS02006251 (69.31%)
  Link WS02006280WS02006229 (8.57%)
  Link WS02006238WS02006235 (4.35%)
  Link YS02006556YS02006558 (3.72%)
  Link YS02001793JiankangQianchi (3.52%)
  
  
  ********************************
  Highest Flow Instability Indexes
  ********************************
  Link WS02006113WS02006111 (38)
  Link YS02163601YS02164001 (31)
  Link YS02001629YS02163301 (31)
  Link YS02163301YS02001633 (31)
  Link YS02001619YS02001622 (29)
  
  
  *************************
  Routing Time Step Summary
  *************************
  Minimum Time Step           :     0.46 sec
  Average Time Step           :     1.08 sec
  Maximum Time Step           :     5.00 sec
  Percent in Steady State     :    -0.00
  Average Iterations per Step :     4.01
  Percent Not Converging      :    17.35
  
  
  ***************************
  Subcatchment Runoff Summary
  ***************************
  
  ------------------------------------------------------------------------------------------------------------------------------
                            Total      Total      Total      Total     Imperv       Perv      Total       Total     Peak  Runoff
                           Precip      Runon       Evap      Infil     Runoff     Runoff     Runoff      Runoff   Runoff   Coeff
  Subcatchment                 mm         mm         mm         mm         mm         mm         mm    10^6 ltr      LPS
  ------------------------------------------------------------------------------------------------------------------------------
  sub0                      13.45       0.00       0.00       0.63      12.47       0.31      12.77        0.01     3.75   0.950
  sub1                      13.45       0.00       0.00       1.12      11.88       0.36      12.24        0.08    25.66   0.910
  sub2                      13.45       0.00       0.00       4.44       8.39       0.53       8.92        0.08    25.29   0.663
  sub3                      13.45       0.00       0.00       4.56       8.35       0.42       8.77        0.20    55.75   0.652
  sub4                      13.45       0.00       0.00       1.22      11.71       0.26      11.97        0.25    65.52   0.890
  sub5                      13.45       0.00       0.00       0.68      12.41       0.26      12.67        0.14    44.76   0.942
  sub7                      13.45       0.00       0.00       0.86      12.18       0.35      12.53        0.04    14.26   0.931
  sub8                      13.45       0.00       0.00       0.87      12.17       0.34      12.50        0.08    26.26   0.930
  sub9                      13.45       0.00       0.00       0.88      12.17       0.33      12.50        0.06    19.64   0.929
  sub10                     13.45       0.00       0.00       0.78      12.29       0.29      12.58        0.14    44.00   0.935
  sub11                     13.45       0.00       0.00       0.77      12.30       0.31      12.61        0.15    48.45   0.938
  sub12                     13.45       0.00       0.00       1.25      11.66       0.50      12.16        0.11    38.10   0.904
  sub14                     13.45       0.00       0.00       0.88      12.16       0.33      12.49        0.12    38.67   0.929
  sub15                     13.45       0.00       0.00       3.37       9.35       0.66      10.01        0.17    57.01   0.744
  sub16                     13.45       0.00       0.00       3.56       8.97       0.88       9.85        0.10    37.63   0.732
  sub17                     13.45       0.00       0.00       3.47       9.10       0.84       9.94        0.09    30.67   0.739
  sub22                     13.45       0.00       0.00       4.98       7.63       0.81       8.43        0.53   184.54   0.627
  sub23                     13.45       0.00       0.00       4.17       8.43       0.81       9.24        0.44   154.22   0.687
  sub60                     13.45       0.00       0.00       1.53       9.85       0.09       9.93        3.01   438.14   0.738
  sub61                     13.45       0.00       0.00       2.16       9.95       0.12      10.07        3.11   536.45   0.749
  sub62                     13.45       0.00       0.00       0.98      10.84       0.10      10.94        3.36   552.35   0.813
  sub63                     13.45       0.00       0.00       3.77       8.69       0.14       8.83        2.67   492.63   0.656
  sub64                     13.45       0.00       0.00       1.93       9.45       0.09       9.54        2.90   416.72   0.709
  sub65                     13.45       0.00       0.00       1.67       9.61       0.08       9.70        2.98   423.09   0.721
  sub66                     13.45       0.00       0.00       3.81       8.10       0.09       8.18        2.51   380.66   0.608
  sub67                     13.45       0.00       0.00       0.95      11.38       0.13      11.51        3.55   679.52   0.856
  sub68                     13.45       0.00       0.00       1.75      10.45       0.13      10.59        3.26   586.26   0.787
  sub69                     13.45       0.00       0.00       1.83      10.79       0.19      10.98        2.57   544.72   0.816
  sub70                     13.45      11.20       0.00       7.51      14.65       0.88      15.52        3.55   494.81   0.630
  sub71                     13.45       0.00       0.00       0.99      10.58       0.09      10.67        2.52   389.24   0.793
  sub72                     13.45       0.00       0.00       0.89       8.56       0.05       8.61        1.75   189.18   0.640
  1                         13.45      15.11       0.00       1.37      16.56       4.63      21.19        4.98   484.42   0.742
  2                         13.45       0.00       0.00       3.02       3.21       1.96       5.17        2.07   340.45   0.384
  
  
  ****************************
  Subcatchment Washoff Summary
  ****************************
  
  ------------------------------------------------------------------------------------------
                                 COD            SS            TN            TP         NH4-N
  Subcatchment                    kg            kg            kg            kg            kg
  ------------------------------------------------------------------------------------------
  sub0                         2.670         5.197         0.046         0.004         0.022
  sub1                        11.241        22.423         0.210         0.015         0.101
  sub2                         6.894        13.384         0.145         0.010         0.067
  sub3                        16.924        32.573         0.350         0.024         0.161
  sub4                        25.772        51.904         0.510         0.031         0.245
  sub5                        25.778        50.682         0.460         0.035         0.223
  sub7                         5.751        11.638         0.108         0.007         0.052
  sub8                         8.581        17.755         0.171         0.010         0.082
  sub9                         7.353        15.005         0.142         0.009         0.068
  sub10                       21.202        42.223         0.389         0.028         0.188
  sub11                       20.657        41.614         0.386         0.026         0.187
  sub12                       17.724        35.094         0.321         0.024         0.155
  sub14                       15.732        31.800         0.298         0.020         0.144
  sub15                       20.231        39.321         0.389         0.028         0.182
  sub16                       13.129        25.518         0.249         0.019         0.117
  sub17                       12.049        23.208         0.222         0.017         0.105
  sub22                       62.582       119.432         1.186         0.090         0.554
  sub23                       36.683        72.439         0.776         0.051         0.357
  sub60                      243.520       456.962         4.842         0.298         2.321
  sub61                      302.151       564.434         5.627         0.386         2.710
  sub62                      313.722       596.076         6.119         0.388         2.938
  sub63                      223.275       410.850         4.468         0.314         2.075
  sub64                      305.877       553.773         5.626         0.410         2.687
  sub65                      313.037       569.066         5.795         0.415         2.772
  sub66                      176.068       321.340         3.608         0.236         1.687
  sub67                      466.222       877.505         8.365         0.616         4.045
  sub68                      332.037       626.413         6.347         0.429         3.034
  sub69                      298.258       568.561         5.590         0.393         2.674
  sub70                      502.897       962.303        10.037         0.699         4.710
  sub71                      206.745       396.330         4.242         0.246         2.030
  sub72                      164.385       293.107         3.069         0.210         1.476
  1                          349.075       671.606         7.102         0.495         3.297
  2                           42.749        75.577         1.214         0.073         0.518
  ------------------------------------------------------------------------------------------
  System                    4570.974      8595.115        88.408         6.057        41.983
  
  
  ******************
  Node Depth Summary
  ******************
  
  ---------------------------------------------------------------------------------
                                 Average  Maximum  Maximum  Time of Max    Reported
                                   Depth    Depth      HGL   Occurrence   Max Depth
  Node                 Type       Meters   Meters   Meters  days hr:min      Meters
  ---------------------------------------------------------------------------------
  WS02001211           JUNCTION     0.77     0.85     5.69     0  03:07        0.85
  WS02001212           JUNCTION     0.48     0.58     5.64     0  03:06        0.58
  WS02001213           JUNCTION     0.73     0.85     5.62     0  03:06        0.85
  WS02003069           JUNCTION     0.53     0.72     5.30     0  03:05        0.72
  WS02003072           JUNCTION     0.59     0.76     5.13     0  03:06        0.76
  WS02003073           JUNCTION     0.36     0.48     4.54     0  03:06        0.48
  WS02003060           JUNCTION     0.47     0.63     5.57     0  03:05        0.63
  WS02003066           JUNCTION     0.26     0.39     5.94     0  03:04        0.39
  WS02003059           JUNCTION     0.78     0.91     5.60     0  03:05        0.91
  WS02003067           JUNCTION     0.63     0.82     6.14     0  03:03        0.82
  WS02004401           JUNCTION     0.76     1.23     7.23     0  03:02        1.23
  WS02004402           JUNCTION     0.79     1.22     7.18     0  03:02        1.22
  WS02004403           JUNCTION     0.81     1.20     7.13     0  03:01        1.19
  WS02004404           JUNCTION     0.88     1.25     7.10     0  03:02        1.24
  WS02004406           JUNCTION     0.88     1.17     7.00     0  03:02        1.16
  WS02004409           JUNCTION     0.58     0.96     6.73     0  03:03        0.96
  WS02004410           JUNCTION     0.59     0.95     6.67     0  03:03        0.95
  WS02004411           JUNCTION     0.61     0.93     6.61     0  03:03        0.93
  WS02004412           JUNCTION     0.62     0.90     6.54     0  03:03        0.90
  WS02004413           JUNCTION     0.78     1.02     6.49     0  03:03        1.02
  WS02004405           JUNCTION     0.87     1.22     7.07     0  03:02        1.21
  WS02006109           JUNCTION     0.86     1.66     8.28     0  03:02        1.65
  WS02006110           JUNCTION     0.83     1.45     8.04     0  03:02        1.44
  WS02006111           JUNCTION     0.26     0.88     7.59     0  03:02        0.88
  WS02006112           JUNCTION     0.95     1.56     7.44     0  03:02        1.55
  WS02006113           JUNCTION     0.40     0.92     7.82     0  03:02        0.92
  WS02006115           JUNCTION     0.66     1.22     7.36     0  03:02        1.21
  WS02006116           JUNCTION     0.74     1.26     7.30     0  03:02        1.25
  WS02006230           JUNCTION     0.89     1.88     8.62     0  03:02        1.87
  WS02006231           JUNCTION     0.63     1.52     8.65     0  03:02        1.51
  WS02006232           JUNCTION     0.77     1.63     8.66     0  03:02        1.61
  WS02006234           JUNCTION     0.72     1.53     8.68     0  03:02        1.52
  WS02006235           JUNCTION     0.77     1.54     8.70     0  03:02        1.53
  WS02006238           JUNCTION     0.80     1.56     8.70     0  03:02        1.54
  WS02006240           JUNCTION     0.70     1.40     8.69     0  03:02        1.40
  WS02006242           JUNCTION     0.75     1.43     8.70     0  03:02        1.42
  WS02006243           JUNCTION     0.64     1.27     8.69     0  03:02        1.27
  WS02006245           JUNCTION     0.61     1.21     8.70     0  03:01        1.20
  WS02006247           JUNCTION     0.62     1.20     8.70     0  03:03        1.19
  WS02006248           JUNCTION     0.56     1.10     8.69     0  02:57        1.10
  WS02006249           JUNCTION     0.57     1.09     8.69     0  02:54        1.09
  WS02006239           JUNCTION     0.75     1.49     8.70     0  03:02        1.48
  WS02006251           JUNCTION     0.55     1.40     9.07     0  03:51        1.21
  WS02006252           JUNCTION     0.34     0.99     9.23     0  03:51        0.76
  WS02006253           JUNCTION     0.58     1.77     9.41     0  03:51        1.27
  WS02006256           JUNCTION     1.85     2.35     9.28     0  00:00        2.35
  WS02004138           JUNCTION     0.19     0.20     7.45     0  00:00        0.19
  WS02004139           JUNCTION     0.72     0.79     5.70     0  03:07        0.79
  WS02004407           JUNCTION     0.26     0.40     6.71     0  03:03        0.40
  WS02006228           JUNCTION     0.88     1.83     8.48     0  03:02        1.81
  WS02006229           JUNCTION     0.87     1.90     8.59     0  03:02        1.89
  WS02006280           JUNCTION     0.07     0.29     8.57     0  03:05        0.29
  WS02006284           JUNCTION     0.37     0.65     9.04     0  03:02        0.64
  WS02006287           JUNCTION     0.10     0.39     9.34     0  03:02        0.39
  WSF200               JUNCTION     0.26     0.44     5.67     0  03:04        0.44
  HS02004901           JUNCTION     0.13     0.38    10.20     0  03:01        0.37
  HS02004881           JUNCTION     0.01     0.05     9.08     0  03:01        0.05
  HS02004876           JUNCTION     0.04     0.16     9.19     0  03:01        0.16
  HS02004870           JUNCTION     0.02     0.09     9.38     0  03:01        0.09
  HS02004862           JUNCTION     0.02     0.11     9.49     0  03:01        0.11
  HS02004856           JUNCTION     0.08     0.15     9.58     0  03:01        0.15
  HS02004852           JUNCTION     0.01     0.07     9.59     0  03:02        0.07
  HS02004848           JUNCTION     0.01     0.07     9.67     0  03:01        0.07
  HS02004842           JUNCTION     0.33     0.40     9.67     0  03:01        0.40
  HS02004837           JUNCTION     0.03     0.09     9.67     0  03:01        0.09
  HS02004830           JUNCTION     0.04     0.10     9.57     0  03:02        0.10
  HS02004824           JUNCTION     0.02     0.13     9.53     0  03:02        0.13
  HS02004817           JUNCTION     0.44     0.69     9.54     0  03:02        0.69
  HS02004807           JUNCTION     0.13     0.36     9.53     0  03:02        0.36
  HS02004802           JUNCTION     0.16     0.39     9.52     0  03:02        0.39
  HS02004799           JUNCTION     0.12     0.46     9.68     0  03:01        0.46
  HS02004792           JUNCTION     0.03     0.22     9.74     0  03:01        0.21
  HS02004788           JUNCTION     0.03     0.16    10.05     0  03:02        0.16
  HS02004785           JUNCTION     0.05     0.25    10.15     0  03:02        0.25
  HS02004777           JUNCTION     0.15     0.39    10.19     0  03:01        0.39
  HS02004770           JUNCTION     0.12     0.37    10.20     0  03:01        0.36
  HS02004480           JUNCTION     0.08     0.38     9.62     0  03:01        0.38
  HS02004479           JUNCTION     0.12     0.42     9.62     0  03:01        0.42
  HS02004478           JUNCTION     0.06     0.28     9.50     0  03:01        0.28
  YS02001745           JUNCTION     0.75     0.94     8.46     0  03:01        0.94
  YS02001748           JUNCTION     1.15     1.63     8.70     0  02:33        1.37
  YS02001751           JUNCTION     1.33     1.58     8.46     0  02:33        1.56
  YS02001754           JUNCTION     1.58     1.83     8.44     0  03:01        1.83
  YS02001762           JUNCTION     1.78     2.04     8.44     0  02:54        2.03
  YS02001765           JUNCTION     1.74     1.99     8.44     0  02:54        1.97
  YS02001767           JUNCTION     1.70     1.94     8.43     0  03:06        1.93
  YS02001770           JUNCTION     1.69     1.93     8.43     0  03:00        1.92
  YS02001774           JUNCTION     1.76     1.99     8.41     0  03:00        1.98
  YS02001779           JUNCTION     1.51     1.68     8.37     0  02:41        1.68
  YS02001882           JUNCTION     0.56     1.64     8.35     0  03:00        1.63
  YS02001884           JUNCTION     0.66     1.74     8.36     0  03:00        1.73
  YS02001759           JUNCTION     1.82     2.08     8.44     0  02:54        2.07
  YS02001887           JUNCTION     0.73     1.82     8.35     0  03:00        1.81
  YS02001890           JUNCTION     0.76     1.81     8.32     0  02:49        1.81
  YS02001898           JUNCTION     0.53     1.56     8.30     0  02:49        1.56
  YS02001901           JUNCTION     0.65     1.68     8.29     0  02:56        1.68
  YS02001904           JUNCTION     0.63     1.64     8.27     0  02:53        1.63
  YS02001907           JUNCTION     0.96     1.96     8.25     0  02:49        1.96
  YS02001910           JUNCTION     0.75     1.79     8.29     0  02:50        1.77
  YS02001915           JUNCTION     0.55     1.60     8.32     0  02:49        1.60
  YS02001918           JUNCTION     0.30     1.30     8.36     0  02:50        1.29
  YS02001619           JUNCTION     1.29     1.50     8.43     0  02:32        1.48
  YS02001629           JUNCTION     1.64     1.85     8.40     0  06:31        1.84
  YS02001641           JUNCTION     1.74     1.93     8.37     0  02:50        1.93
  YS02001644           JUNCTION     1.75     1.92     8.35     0  02:39        1.92
  YS02001652           JUNCTION     1.60     2.13     8.73     0  02:43        1.88
  YS02001655           JUNCTION     1.36     2.18     9.03     0  02:43        1.72
  YS02001920           JUNCTION     0.40     1.38     8.38     0  02:50        1.37
  YS02001923           JUNCTION     0.24     1.14     8.40     0  02:50        1.14
  YS02001926           JUNCTION     0.29     0.95     8.40     0  02:50        0.95
  YS02001929           JUNCTION     0.17     0.71     8.41     0  02:50        0.70
  YS02001658           JUNCTION     1.09     2.20     9.34     0  02:43        1.53
  YS02001661           JUNCTION     0.85     2.44     9.84     0  02:44        1.38
  YS02001664           JUNCTION     0.38     0.57     8.50     0  02:42        0.56
  YS02001622           JUNCTION     1.31     1.51     8.41     0  02:32        1.50
  YS02001633           JUNCTION     1.74     1.95     8.40     0  06:31        1.94
  YS02001649           JUNCTION     1.79     2.05     8.44     0  02:42        2.03
  YS02001757           JUNCTION     1.92     2.17     8.43     0  02:54        2.17
  YS02001895           JUNCTION     0.52     1.57     8.31     0  02:49        1.56
  YS02001625           JUNCTION     1.60     1.78     8.38     0  02:32        1.78
  YS02163301           JUNCTION     1.67     1.88     8.40     0  02:51        1.88
  YS02163601           JUNCTION     1.79     2.00     8.39     0  06:31        1.98
  YS02164001           JUNCTION     1.73     1.93     8.39     0  06:31        1.91
  YS02001647           JUNCTION     1.58     1.80     8.41     0  02:42        1.78
  YSB1154              JUNCTION     0.26     0.57     9.62     0  03:01        0.57
  YSB6556              JUNCTION     0.15     0.45     9.62     0  03:02        0.45
  YSB1174              JUNCTION     0.21     0.52     9.62     0  03:01        0.51
  YSB1171              JUNCTION     0.41     0.72     9.62     0  03:01        0.72
  YS02006553           JUNCTION     0.96     1.97     8.25     0  03:03        1.96
  YS02006561           JUNCTION     0.32     1.08     7.74     0  03:00        1.07
  YS02006556           JUNCTION     0.93     1.93     8.24     0  02:59        1.93
  YS02006558           JUNCTION     0.97     1.98     8.25     0  02:59        1.97
  YS02001783           JUNCTION     0.54     1.56     7.70     0  02:22        1.45
  YS02001784           JUNCTION     0.55     1.40     7.47     0  03:01        1.39
  YS02001786           JUNCTION     0.49     1.28     7.31     0  02:22        1.23
  YS02001788           JUNCTION     0.42     1.23     7.21     0  02:22        1.09
  YS02001790           JUNCTION     0.54     1.96     7.60     0  04:45        1.25
  YS02001791           JUNCTION     0.51     2.50     7.97     0  04:45        1.22
  YS02001793           JUNCTION     0.71     3.51     8.34     0  04:43        1.79
  WSC                  OUTFALL      0.36     0.48     1.15     0  03:07        0.48
  JK-storage           STORAGE      2.81     5.80     6.60     0  02:21        5.80
  CC-storage           STORAGE      1.17     1.44     8.44     0  03:15        1.44
  XR-storage           STORAGE      6.78     7.72     5.72     0  02:55        7.72
  
  
  *******************
  Node Inflow Summary
  *******************
  
  -------------------------------------------------------------------------------------------------
                                  Maximum  Maximum                  Lateral       Total        Flow
                                  Lateral    Total  Time of Max      Inflow      Inflow     Balance
                                   Inflow   Inflow   Occurrence      Volume      Volume       Error
  Node                 Type           LPS      LPS  days hr:min    10^6 ltr    10^6 ltr     Percent
  -------------------------------------------------------------------------------------------------
  WS02001211           JUNCTION      7.35   391.82     0  03:17       0.207        9.97       0.413
  WS02001212           JUNCTION      0.00   396.44     0  03:16           0        9.93       0.232
  WS02001213           JUNCTION      0.00   400.31     0  03:16           0         9.9       0.317
  WS02003069           JUNCTION      0.32  1333.02     0  03:05     0.00902        20.5       0.192
  WS02003072           JUNCTION      0.00  1332.78     0  03:05           0        20.5       0.224
  WS02003073           JUNCTION      1.82  1334.71     0  03:06      0.0514        20.5       0.261
  WS02003060           JUNCTION     16.53  1332.83     0  03:04       0.466        20.6       0.180
  WS02003066           JUNCTION      0.00   938.24     0  03:04           0        10.3       0.053
  WS02003059           JUNCTION      0.00   405.06     0  03:15           0        9.88       0.423
  WS02003067           JUNCTION      0.00   937.78     0  03:04           0        10.3       0.105
  WS02004401           JUNCTION      0.00   939.82     0  03:02           0        10.6       0.237
  WS02004402           JUNCTION      0.00   939.97     0  03:02           0        10.6       0.219
  WS02004403           JUNCTION      0.00   939.95     0  03:02           0        10.5       0.196
  WS02004404           JUNCTION      0.16   939.80     0  03:03     0.00457        10.5       0.144
  WS02004406           JUNCTION      0.00   939.55     0  03:02           0        10.5       0.350
  WS02004409           JUNCTION      0.00   938.93     0  03:03           0        10.4       0.203
  WS02004410           JUNCTION      0.00   937.95     0  03:03           0        10.4       0.224
  WS02004411           JUNCTION      0.00   937.45     0  03:03           0        10.4       0.225
  WS02004412           JUNCTION      0.00   937.18     0  03:03           0        10.4       0.236
  WS02004413           JUNCTION      0.00   937.64     0  03:04           0        10.3       0.338
  WS02004405           JUNCTION      0.04   940.30     0  03:02     0.00107        10.5       0.214
  WS02006109           JUNCTION      1.23   915.36     0  03:02      0.0347        10.6       0.197
  WS02006110           JUNCTION      0.00   915.19     0  03:02           0        10.6       0.203
  WS02006111           JUNCTION      0.00   915.32     0  03:03           0        10.6       0.049
  WS02006112           JUNCTION     30.67   939.49     0  03:02      0.0853        10.7       0.317
  WS02006113           JUNCTION      0.00   915.01     0  03:03           0        10.6       0.120
  WS02006115           JUNCTION      0.00   938.92     0  03:02           0        10.6       0.241
  WS02006116           JUNCTION      0.00   939.68     0  03:02           0        10.6       0.206
  WS02006230           JUNCTION     10.28   533.22     0  07:00        0.29        8.22       0.220
  WS02006231           JUNCTION      0.00   522.95     0  07:00           0        7.94       0.162
  WS02006232           JUNCTION      0.00   522.86     0  07:00           0        7.96       0.231
  WS02006234           JUNCTION      0.00   523.54     0  07:00           0        7.97       0.140
  WS02006235           JUNCTION      0.00   524.41     0  07:00           0        8.04       0.148
  WS02006238           JUNCTION      0.00   413.22     0  06:00           0        4.46       0.195
  WS02006240           JUNCTION      0.00   411.97     0  06:00           0        4.43       0.371
  WS02006242           JUNCTION      0.00   412.53     0  06:00           0        4.42       0.417
  WS02006243           JUNCTION      0.00   412.67     0  06:00           0        4.42       0.237
  WS02006245           JUNCTION      0.00   413.12     0  06:00           0        4.42       0.297
  WS02006247           JUNCTION      0.00   413.43     0  06:00           0        4.43       0.219
  WS02006248           JUNCTION      0.00   412.47     0  06:00           0        4.43       0.155
  WS02006249           JUNCTION      0.00   537.40     0  03:00           0        4.84       0.248
  WS02006239           JUNCTION      0.00   412.87     0  06:00           0        4.44       0.231
  WS02006251           JUNCTION      0.08   536.64     0  03:00     0.00217         4.9       0.217
  WS02006252           JUNCTION      0.00   400.00     0  03:50           0        4.38       0.009
  WS02006253           JUNCTION      3.75   152.44     0  03:50      0.0103       0.523       0.959
  WS02006256           JUNCTION      0.00   983.00     0  02:40           0        10.5      -0.010
  WS02004138           JUNCTION      0.00   380.00     0  00:00           0         9.8       0.061
  WS02004139           JUNCTION      0.32   395.85     0  00:00     0.00905        9.81       0.473
  WS02004407           JUNCTION      0.00   939.40     0  03:02           0        10.4       0.091
  WS02006228           JUNCTION      0.00   914.00     0  03:02           0        10.6       0.158
  WS02006229           JUNCTION      0.00   916.61     0  03:01           0        10.6       0.140
  WS02006280           JUNCTION      0.00   680.11     0  03:02           0        2.43       0.007
  WS02006284           JUNCTION      0.10   678.98     0  03:02      0.0027        2.43       0.046
  WS02006287           JUNCTION      0.00   677.62     0  03:02           0        2.43       0.031
  WSF200               JUNCTION      0.00   938.39     0  03:04           0        10.3       0.054
  HS02004901           JUNCTION     37.63    37.63     0  03:01       0.103       0.103       1.741
  HS02004881           JUNCTION     14.26   140.53     0  03:01      0.0422       0.463       0.103
  HS02004876           JUNCTION     25.66   127.64     0  03:01      0.0814       0.422       0.131
  HS02004870           JUNCTION     26.26   103.58     0  03:01      0.0799        0.34       0.035
  HS02004862           JUNCTION     25.49    79.37     0  03:01      0.0888       0.261       0.067
  HS02004856           JUNCTION     19.64    55.40     0  03:01      0.0601       0.173       0.845
  HS02004852           JUNCTION      0.00    37.84     0  03:01           0       0.113       0.053
  HS02004848           JUNCTION     55.75    55.75     0  03:01       0.197       0.197       0.028
  HS02004842           JUNCTION      0.00    16.84     0  03:01           0       0.097      15.492
  HS02004837           JUNCTION     50.35    65.69     0  03:01       0.318       0.402       0.204
  HS02004830           JUNCTION      0.15    64.79     0  03:01     0.00423       0.392       0.316
  HS02004824           JUNCTION     65.57   128.42     0  03:01       0.251       0.642       0.085
  HS02004817           JUNCTION      0.60   124.46     0  03:01      0.0169       0.658       2.600
  HS02004807           JUNCTION     48.45   165.65     0  03:01       0.147       0.788       0.554
  HS02004802           JUNCTION      0.00   165.30     0  03:04           0       0.785       0.507
  HS02004799           JUNCTION     38.67   446.05     0  03:01       0.119        1.42       0.191
  HS02004792           JUNCTION    184.82   411.74     0  03:01        0.54         1.3       0.033
  HS02004788           JUNCTION     58.68   233.43     0  03:02       0.219       0.758       0.053
  HS02004785           JUNCTION      0.15   182.21     0  03:01     0.00423        0.54       0.093
  HS02004777           JUNCTION      0.03   185.00     0  03:01    0.000846       0.541       0.972
  HS02004770           JUNCTION    154.22   188.93     0  03:01       0.441       0.542       0.578
  HS02004480           JUNCTION      0.00   517.22     0  03:01           0        1.66       0.069
  HS02004479           JUNCTION      0.00    75.49     0  03:02           0       0.258       0.286
  HS02004478           JUNCTION      0.00   677.04     0  03:02           0        2.43       0.011
  YS02001745           JUNCTION    438.14   438.14     0  03:01        3.01        3.02       0.367
  YS02001748           JUNCTION      0.04   583.39     0  02:32     0.00127        3.01       0.693
  YS02001751           JUNCTION      0.01   443.59     0  03:01     0.00031        2.98       0.804
  YS02001754           JUNCTION      0.26   444.36     0  03:01     0.00733        2.96       0.849
  YS02001762           JUNCTION      0.00   313.35     0  02:43           0        2.22       0.970
  YS02001765           JUNCTION      0.00   314.19     0  02:43           0        2.22       1.119
  YS02001767           JUNCTION      0.54   314.57     0  02:43      0.0151        2.25       1.622
  YS02001770           JUNCTION    552.50   654.80     0  03:16        3.37        3.91       0.823
  YS02001774           JUNCTION      0.00   654.81     0  03:16           0        2.18       1.176
  YS02001779           JUNCTION      0.01   654.82     0  03:16    0.000141        2.15       0.728
  YS02001882           JUNCTION      0.00    11.18     0  02:38           0      0.0242       9.676
  YS02001884           JUNCTION      0.00    26.03     0  02:38           0      0.0609      11.047
  YS02001759           JUNCTION    536.49   619.87     0  02:43        3.11        4.76       0.483
  YS02001887           JUNCTION    679.97   679.97     0  03:01        3.56         3.6       0.240
  YS02001890           JUNCTION      0.00   680.03     0  03:01           0        3.55       0.268
  YS02001898           JUNCTION      0.00   517.62     0  03:00           0        3.45       0.077
  YS02001901           JUNCTION      0.00   517.54     0  03:03           0        3.45       0.210
  YS02001904           JUNCTION      0.00   517.77     0  02:59           0        3.44       0.181
  YS02001907           JUNCTION      0.00  1095.17     0  03:02           0        7.77       0.319
  YS02001910           JUNCTION      0.00   579.26     0  03:02           0        4.34       0.273
  YS02001915           JUNCTION    389.26   578.70     0  03:02        2.52        4.35       0.139
  YS02001918           JUNCTION      0.00   265.09     0  02:50           0        1.84       0.093
  YS02001619           JUNCTION    380.66   380.66     0  03:01        2.51        2.51       0.487
  YS02001629           JUNCTION      0.00   196.75     0  02:39           0        1.59       1.851
  YS02001641           JUNCTION      0.00   412.44     0  02:39           0        4.45       0.479
  YS02001644           JUNCTION    416.76  1491.04     0  03:01         2.9        10.5       0.249
  YS02001652           JUNCTION      0.00   503.10     0  03:01           0        2.63       0.904
  YS02001655           JUNCTION      0.15   502.32     0  03:01     0.00434        2.65       0.936
  YS02001920           JUNCTION      2.87   265.03     0  02:50      0.0809        1.84       0.156
  YS02001923           JUNCTION      0.04   229.09     0  02:50     0.00106        1.76       0.056
  YS02001926           JUNCTION      0.05   196.71     0  03:02     0.00147        1.75       0.190
  YS02001929           JUNCTION    189.18   189.18     0  03:01        1.75        1.75       0.037
  YS02001658           JUNCTION      0.00   580.01     0  02:29           0        2.68       0.801
  YS02001661           JUNCTION      0.00   671.20     0  02:42           0        3.14      -0.158
  YS02001664           JUNCTION    492.63   492.63     0  03:01        2.67        3.13       0.202
  YS02001622           JUNCTION      0.00   381.12     0  03:01           0         2.5       1.293
  YS02001633           JUNCTION    423.29   423.29     0  03:01        2.99        4.52       0.714
  YS02001649           JUNCTION      0.00   876.63     0  02:39           0        5.81       0.644
  YS02001757           JUNCTION      0.00  1679.64     0  02:40           0        9.71       0.956
  YS02001895           JUNCTION      0.00   517.82     0  03:00           0        3.45       0.147
  YS02001625           JUNCTION      0.00   408.80     0  03:01           0        2.47       1.597
  YS02163301           JUNCTION      0.00   209.34     0  02:32           0        1.57       1.563
  YS02163601           JUNCTION      0.11   413.16     0  02:39      0.0031        4.48       0.680
  YS02164001           JUNCTION      0.00   413.13     0  02:39           0        4.46       0.453
  YS02001647           JUNCTION      0.00   747.95     0  03:16           0        4.92       0.574
  YSB1154              JUNCTION     44.76    44.76     0  03:01       0.144       0.144       1.017
  YSB6556              JUNCTION      0.00    43.26     0  03:01           0       0.145       0.870
  YSB1174              JUNCTION     38.10    38.10     0  03:01       0.106       0.107       1.222
  YSB1171              JUNCTION      0.00    76.91     0  03:01           0       0.257       2.526
  YS02006553           JUNCTION      0.00   710.05     0  03:46           0        6.75       0.228
  YS02006561           JUNCTION      0.00  1044.12     0  02:49           0        9.98       0.006
  YS02006556           JUNCTION      0.00   710.13     0  03:46           0        6.76       0.168
  YS02006558           JUNCTION    587.14  1044.45     0  02:49        3.28          10       0.052
  YS02001783           JUNCTION      0.00  1044.25     0  02:49           0        9.98       0.025
  YS02001784           JUNCTION      1.06  1044.86     0  02:49      0.0299          10       0.037
  YS02001786           JUNCTION      0.06  1044.50     0  02:49     0.00159          10       0.033
  YS02001788           JUNCTION      0.07  1044.29     0  02:49       0.002          10       0.022
  YS02001790           JUNCTION      0.15  1045.05     0  02:49     0.00437          10       0.019
  YS02001791           JUNCTION      0.00  1044.99     0  02:49           0          10       0.010
  YS02001793           JUNCTION      0.00  1045.63     0  02:49           0          10      -0.015
  WSC                  OUTFALL       0.00  1334.96     0  03:07           0        20.5       0.000
  JK-storage           STORAGE       0.00  1045.21     0  02:49           0        10.2     -10.263
  CC-storage           STORAGE       0.00  1679.88     0  02:40           0        8.14       0.795
  XR-storage           STORAGE    1024.87  1024.87     0  03:01        12.7        13.3      -0.005
  
  
  **********************
  Node Surcharge Summary
  **********************
  
  Surcharging occurs when water rises above the top of the highest conduit.
  ---------------------------------------------------------------------
                                               Max. Height   Min. Depth
                                   Hours       Above Crown    Below Rim
  Node                 Type      Surcharged         Meters       Meters
  ---------------------------------------------------------------------
  WS02004401           JUNCTION        0.44          0.235        1.425
  WS02004402           JUNCTION        0.48          0.224        1.516
  WS02004403           JUNCTION        0.49          0.198        1.832
  WS02004404           JUNCTION        0.83          0.248        2.532
  WS02004406           JUNCTION        0.72          0.166        2.284
  WS02004413           JUNCTION        0.20          0.023        2.177
  WS02004405           JUNCTION        0.77          0.220        2.580
  WS02006109           JUNCTION        4.51          0.838        0.982
  WS02006110           JUNCTION        1.98          0.540        1.310
  WS02006111           JUNCTION        0.13          0.075        1.795
  WS02006112           JUNCTION        2.35          0.559        1.121
  WS02006113           JUNCTION        0.16          0.123        1.807
  WS02006115           JUNCTION        0.32          0.207        2.043
  WS02006116           JUNCTION        0.33          0.203        2.087
  WS02006230           JUNCTION        1.70          0.796        0.774
  WS02006231           JUNCTION        2.19          0.813        0.717
  WS02006232           JUNCTION        4.24          0.926        0.554
  WS02006234           JUNCTION        3.76          0.807        0.433
  WS02006235           JUNCTION        3.95          0.827        0.463
  WS02006238           JUNCTION        4.03          0.839        0.591
  WS02006240           JUNCTION        3.69          0.691        0.699
  WS02006242           JUNCTION        3.83          0.699        0.121
  WS02006243           JUNCTION        2.58          0.562        0.208
  WS02006245           JUNCTION        2.30          0.504        0.346
  WS02006247           JUNCTION        2.33          0.486        0.274
  WS02006248           JUNCTION        1.94          0.380        0.000
  WS02006249           JUNCTION        2.03          0.390        0.000
  WS02006239           JUNCTION        3.79          0.748        0.542
  WS02006251           JUNCTION        0.99          0.365        0.815
  WS02006252           JUNCTION        2.26          0.588        0.512
  WS02006253           JUNCTION        1.04          0.730        1.750
  WS02006256           JUNCTION        6.84          2.050        0.000
  WS02006228           JUNCTION        4.48          1.002        1.198
  YS02001748           JUNCTION        5.23          0.546        0.644
  YS02001751           JUNCTION        5.38          0.578        0.622
  YS02001754           JUNCTION        5.58          0.778        0.372
  YS02001762           JUNCTION        5.75          1.042        0.108
  YS02001765           JUNCTION        5.72          0.987        0.113
  YS02001767           JUNCTION        5.70          0.944        0.086
  YS02001770           JUNCTION        5.68          0.902        0.018
  YS02001774           JUNCTION        5.74          0.986        0.064
  YS02001779           JUNCTION        5.56          0.680        0.000
  YS02001882           JUNCTION        1.11          0.637        0.193
  YS02001884           JUNCTION        1.14          0.678        0.192
  YS02001759           JUNCTION        5.78          1.080        0.130
  YS02001887           JUNCTION        1.21          0.765        0.185
  YS02001890           JUNCTION        1.24          0.760        0.000
  YS02001898           JUNCTION        1.06          0.534        0.206
  YS02001901           JUNCTION        1.18          0.677        0.193
  YS02001904           JUNCTION        1.16          0.637        0.213
  YS02001907           JUNCTION        1.92          0.950        0.000
  YS02001910           JUNCTION        1.28          0.788        0.312
  YS02001915           JUNCTION        1.09          0.604        0.396
  YS02001918           JUNCTION        0.88          0.295        0.515
  YS02001619           JUNCTION        5.37          0.496        0.114
  YS02001629           JUNCTION        5.39          0.468        0.002
  YS02001641           JUNCTION        5.73          0.934        0.166
  YS02001644           JUNCTION        5.73          0.920        0.000
  YS02001652           JUNCTION        5.61          1.103        0.027
  YS02001655           JUNCTION        5.40          1.177        0.023
  YS02001920           JUNCTION        0.91          0.375        0.765
  YS02001658           JUNCTION        5.25          1.203        0.097
  YS02001661           JUNCTION        0.13          1.370        0.020
  YS02001622           JUNCTION        5.41          0.507        0.113
  YS02001633           JUNCTION        5.71          0.928        0.132
  YS02001649           JUNCTION        5.75          1.050        0.000
  YS02001757           JUNCTION        5.86          1.170        0.040
  YS02001895           JUNCTION        1.07          0.567        0.183
  YS02001625           JUNCTION        5.64          0.780        0.000
  YS02163301           JUNCTION        5.69          0.883        0.147
  YS02163601           JUNCTION        5.75          0.997        0.083
  YS02164001           JUNCTION        5.72          0.930        0.170
  YS02001647           JUNCTION        5.62          0.803        0.097
  YS02006553           JUNCTION        1.99          0.969        0.221
  YS02006561           JUNCTION        0.90          0.280        0.870
  YS02006556           JUNCTION        1.50          0.893        0.457
  YS02006558           JUNCTION        1.46          0.878        0.522
  YS02001783           JUNCTION        1.49          0.763        0.837
  YS02001784           JUNCTION        1.47          0.603        0.887
  YS02001786           JUNCTION        1.38          0.483        0.947
  YS02001788           JUNCTION        1.22          0.428        1.052
  YS02001790           JUNCTION        2.23          1.157        0.000
  YS02001791           JUNCTION        2.33          1.697        0.223
  YS02001793           JUNCTION        2.60          2.510        0.090
  
  
  *********************
  Node Flooding Summary
  *********************
  
  Flooding refers to all water that overflows a node, whether it ponds or not.
  --------------------------------------------------------------------------
                                                             Total   Maximum
                                 Maximum   Time of Max       Flood    Ponded
                        Hours       Rate    Occurrence      Volume     Depth
  Node                 Flooded       LPS   days hr:min    10^6 ltr    Meters
  --------------------------------------------------------------------------
  WS02006248              0.07     14.53      0  03:03       0.002     0.000
  WS02006249              0.96    424.21      0  03:00       0.396     0.000
  WS02006256              4.27    830.87      0  03:02       6.891     0.000
  YS02001779              2.80    654.82      0  03:16       2.134     0.000
  YS02001890              0.34    163.63      0  03:01       0.085     0.000
  YS02001907              0.75    688.04      0  03:01       1.004     0.000
  YS02001644              4.31   1490.41      0  03:01       8.699     0.000
  YS02001649              0.02     46.48      0  02:43       0.001     0.000
  YS02001625              1.42    408.39      0  03:01       0.855     0.000
  YS02001790              0.01    166.83      0  04:46       0.000     0.000
  JK-storage              0.81    550.77      0  02:23       0.780     0.000
  XR-storage              3.52    644.77      0  03:01       2.729     0.000
  
  
  **********************
  Storage Volume Summary
  **********************
  
  --------------------------------------------------------------------------------------------------
                         Average     Avg  Evap Exfil       Maximum     Max    Time of Max    Maximum
                          Volume    Pcnt  Pcnt  Pcnt        Volume    Pcnt     Occurrence    Outflow
  Storage Unit           1000 m3    Full  Loss  Loss       1000 m3    Full    days hr:min        LPS
  --------------------------------------------------------------------------------------------------
  JK-storage               0.141      49     0     0         0.291     100       0  02:21     983.00
  CC-storage               3.270      21     0     0         4.003      26       0  03:15     400.00
  XR-storage               0.814      88     0     0         0.926     100       0  02:55     380.00
  
  
  ***********************
  Outfall Loading Summary
  ***********************
  
  ---------------------------------------------------------------------------------------------------------------------------------
                         Flow       Avg       Max       Total         Total         Total         Total         Total         Total
                         Freq      Flow      Flow      Volume           COD            SS            TN            TP         NH4-N
  Outfall Node           Pcnt       LPS       LPS    10^6 ltr            kg            kg            kg            kg            kg
  ---------------------------------------------------------------------------------------------------------------------------------
  WSC                   99.98    826.76   1334.96      20.462      2431.831      4215.303       149.132        17.411        89.891
  ---------------------------------------------------------------------------------------------------------------------------------
  System                99.98    826.76   1334.96      20.462      2431.831      4215.303       149.132        17.411        89.891
  
  
  ********************
  Link Flow Summary
  ********************
  
  -----------------------------------------------------------------------------
                                 Maximum  Time of Max   Maximum    Max/    Max/
                                  |Flow|   Occurrence   |Veloc|    Full    Full
  Link                 Type          LPS  days hr:min     m/sec    Flow   Depth
  -----------------------------------------------------------------------------
  WS02003066WSF200     CONDUIT    938.39     0  03:04      3.00    0.16    0.32
  WS02006287WS02006284 CONDUIT    678.88     0  03:02      2.38    0.31    0.39
  WS02006284WS02006280 CONDUIT    680.11     0  03:02      2.62    0.28    0.37
  WS02006280WS02006229 CONDUIT    680.15     0  03:02      3.84    0.15    0.50
  WS02006229WS02006228 CONDUIT    914.00     0  03:02      1.82    3.03    1.00
  WS02006256WS02006235 CONDUIT    288.92     0  00:00      4.23    3.06    1.00
  WS02006253WS02006251 CONDUIT    145.12     0  03:01      0.58    0.44    1.00
  WS02006252WS02006251 CONDUIT    402.86     0  03:51      3.21    1.48    1.00
  WS02006251WS02006249 CONDUIT    537.40     0  03:00      1.40    1.55    1.00
  WS02006249WS02006248 CONDUIT    412.47     0  06:00      1.14    2.26    1.00
  WS02006248WS02006247 CONDUIT    413.43     0  06:00      1.11    0.90    1.00
  WS02006247WS02006245 CONDUIT    413.12     0  06:00      1.08    3.28    1.00
  WS02006245WS02006243 CONDUIT    412.67     0  06:00      1.10    1.22    1.00
  WS02006243WS02006242 CONDUIT    412.53     0  06:00      1.07    0.88    1.00
  WS02006242WS02006240 CONDUIT    411.97     0  06:00      1.07    1.64    1.00
  WS02006240WS02006239 CONDUIT    412.87     0  06:00      1.07    1.30    1.00
  WS02006239WS02006238 CONDUIT    413.22     0  06:00      1.07    1.32    1.00
  WS02006238WS02006235 CONDUIT    414.14     0  06:00      1.45    0.92    1.00
  WS02006235WS02006234 CONDUIT    523.54     0  07:00      1.36    5.52    1.00
  WS02006234WS02006232 CONDUIT    522.86     0  07:00      1.39    1.06    1.00
  WS02006232WS02006231 CONDUIT    522.95     0  07:00      1.36    1.10    1.00
  WS02006231WS02006230 CONDUIT    522.94     0  07:00      1.36    7.93    1.00
  WS02006230WS02006229 CONDUIT    535.62     0  07:00      1.39   11.92    1.00
  WS02006228WS02006109 CONDUIT    914.13     0  03:02      1.82    3.99    1.00
  WS02006116WS02004401 CONDUIT    939.82     0  03:02      1.20    1.30    1.00
  WS02006115WS02006116 CONDUIT    939.68     0  03:02      1.20    1.21    1.00
  WS02006113WS02006111 CONDUIT    915.32     0  03:03      2.60    1.10    1.00
  WS02006112WS02006115 CONDUIT    938.92     0  03:02      1.20    0.55    1.00
  WS02006111WS02006112 CONDUIT    915.97     0  03:03      1.82    0.44    1.00
  WS02006110WS02006113 CONDUIT    915.01     0  03:03      1.82    0.83    1.00
  WS02006109WS02006110 CONDUIT    915.19     0  03:02      1.82    1.76    1.00
  WS02004411WS02004412 CONDUIT    937.18     0  03:03      1.24    1.33    0.92
  WS02004401WS02004402 CONDUIT    939.97     0  03:02      1.20    1.13    1.00
  WS02004413WS02003067 CONDUIT    937.78     0  03:04      1.55    0.40    0.72
  WS02004412WS02004413 CONDUIT    937.64     0  03:04      1.22    0.63    0.95
  WS02004410WS02004411 CONDUIT    937.45     0  03:03      1.23    1.28    0.94
  WS02004409WS02004410 CONDUIT    937.95     0  03:03      1.21    1.21    0.95
  WS02004407WS02004409 CONDUIT    938.93     0  03:03      1.67    0.33    0.68
  WS02004406WS02004407 CONDUIT    939.40     0  03:02      1.60    0.42    0.70
  WS02004405WS02004406 CONDUIT    939.55     0  03:02      1.20    1.85    1.00
  WS02004404WS02004405 CONDUIT    940.27     0  03:02      1.20    9.21    1.00
  WS02004403WS02004404 CONDUIT    939.64     0  03:03      1.20    0.68    1.00
  WS02004402WS02004403 CONDUIT    939.95     0  03:02      1.20    1.35    1.00
  WS02004139WS02001211 CONDUIT    384.47     0  03:17      0.90    0.49    0.64
  WS02004138WS02004139 CONDUIT    395.52     0  00:00      3.64    0.08    0.47
  WS02003067WS02003066 CONDUIT    938.24     0  03:04      1.65    0.30    0.50
  WS02001213WS02003059 CONDUIT    405.06     0  03:15      0.89    0.67    0.87
  WS02001212WS02001213 CONDUIT    400.31     0  03:16      1.32    0.62    0.56
  WS02001211WS02001212 CONDUIT    396.44     0  03:16      0.78    0.30    0.71
  WS02003072WS02003073 CONDUIT   1332.88     0  03:06      1.96    2.88    0.58
  WS02003069WS02003072 CONDUIT   1332.78     0  03:05      1.82    0.64    0.62
  WS02003060WS02003069 CONDUIT   1332.70     0  03:05      2.03    0.52    0.56
  WS02003059WS02003060 CONDUIT    411.32     0  03:16      0.95    0.27    0.77
  HS02004901HS02004770 CONDUIT     37.23     0  03:01      0.10    0.14    0.53
  HS02004876HS02004881 CONDUIT    127.64     0  03:01      1.21    1.36    0.15
  HS02004870HS02004876 CONDUIT    103.10     0  03:01      0.82    0.07    0.18
  HS02004842HS02004848 CONDUIT     16.84     0  03:01      0.07    0.01    0.33
  HS02004837HS02004842 CONDUIT     17.91     0  03:03      0.42    0.01    0.35
  HS02004830HS02004837 CONDUIT     64.64     0  03:01      0.67    0.06    0.14
  HS02004824HS02004830 CONDUIT     64.12     0  03:02      0.62    0.08    0.16
  HS02004817HS02004824 CONDUIT    123.86     0  03:01      0.31    0.06    0.58
  HS02004770HS02004777 CONDUIT    184.97     0  03:01      0.49    0.34    0.54
  HS02004799HS02004480 CONDUIT    444.36     0  03:01      1.07    0.56    0.60
  HS02004792HS02004799 CONDUIT    408.44     0  03:01      1.20    0.25    0.49
  HS02004788HS02004792 CONDUIT    232.94     0  03:02      1.28    0.15    0.26
  HS02004785HS02004788 CONDUIT    181.77     0  03:02      0.91    1.37    0.29
  HS02004777HS02004785 CONDUIT    182.06     0  03:01      0.57    0.22    0.45
  HS02004480HS02004478 CONDUIT    517.36     0  03:01      1.55    2.18    0.48
  HS02004479HS02004480 CONDUIT     77.36     0  03:02      0.30    0.07    0.57
  HS02004862HS02004870 CONDUIT     79.02     0  03:01      0.80    0.09    0.14
  HS02004848HS02004852 CONDUIT     37.84     0  03:01      0.53    0.04    0.10
  HS02004856HS02004862 CONDUIT     54.76     0  03:01      0.59    0.05    0.13
  HS02004852HS02004856 CONDUIT     37.76     0  03:02      0.34    0.04    0.16
  HS02004802HS02004478 CONDUIT    170.14     0  03:04      0.54    0.15    0.48
  HS02004478WS02006287 CONDUIT    677.62     0  03:02      2.11    0.19    0.36
  HS02004817HS02004807 CONDUIT    128.14     0  03:04      0.25    0.08    0.75
  HS02004807HS02004802 CONDUIT    165.30     0  03:04      0.46    0.32    0.53
  YS02001759YS02001757 CONDUIT    619.70     0  02:43      0.79    0.44    1.00
  YS02001762YS02001759 CONDUIT    313.42     0  02:43      0.40    0.36    1.00
  YS02001765YS02001762 CONDUIT    313.35     0  02:43      0.40    0.29    1.00
  YS02001770YS02001767 CONDUIT    314.04     0  02:43      0.40    1.24    1.00
  YS02001774YS02001770 CONDUIT    654.81     0  03:16      0.83    0.42    1.00
  YS02001779YS02001774 CONDUIT    654.81     0  03:16      0.83    0.33    1.00
  YS02001649YS02001757 CONDUIT    877.62     0  02:39      1.12    0.53    1.00
  YS02001767YS02001765 CONDUIT    314.19     0  02:43      0.40    0.40    1.00
  YS02006561YS02001783 CONDUIT   1044.25     0  02:49      2.14    0.54    1.00
  YS02001783YS02001784 CONDUIT   1043.80     0  02:49      2.08    1.44    1.00
  YS02001784YS02001785 CONDUIT   1044.45     0  02:49      2.08    2.43    1.00
  YS02001788YS02001790 CONDUIT   1044.90     0  02:49      2.44    0.77    1.00
  YS02001790YS02001791 CONDUIT   1044.99     0  02:49      2.91    1.14    1.00
  YS02001791YS02001793 CONDUIT   1045.63     0  02:49      5.76    0.45    1.00
  YS02001910YS02001907 CONDUIT    578.92     0  03:02      0.74    0.33    1.00
  YS02001786YS02001788 CONDUIT   1044.22     0  02:49      2.31    2.01    1.00
  YS02001915YS02001910 CONDUIT    579.26     0  03:02      0.74    0.29    1.00
  YS02001918YS02001915 CONDUIT    265.15     0  02:50      0.44    0.15    1.00
  YS02001923YS02001920 CONDUIT    262.16     0  02:50      0.75    0.12    1.00
  YS02001926YS02001923 CONDUIT    229.05     0  02:50      0.86    0.33    0.94
  YS02001929YS02001926 CONDUIT    196.65     0  03:02      0.92    0.09    0.83
  YS02001920YS02001918 CONDUIT    265.09     0  02:50      0.72    0.26    1.00
  YS02001629YS02163301 CONDUIT    209.34     0  02:32      0.27    0.26    1.00
  YS02001619YS02001622 CONDUIT    381.12     0  03:01      0.59    0.56    1.00
  YS02001622YS02001625 CONDUIT    380.74     0  03:01      0.48    0.20    1.00
  YS02001625YS02001629 CONDUIT    196.75     0  02:39      0.25    0.09    1.00
  YS02163301YS02001633 CONDUIT    213.04     0  02:32      0.27    0.20    1.00
  YS02163601YS02164001 CONDUIT    413.13     0  02:39      0.53    0.37    1.00
  YS02164001YS02001641 CONDUIT    412.44     0  02:39      0.53    0.56    1.00
  YS02001641YS02001644 CONDUIT    412.97     0  02:38      0.53    1.33    1.00
  YS02001647YS02001649 CONDUIT    747.95     0  03:16      0.95    0.39    1.00
  YS02006553YS02006556 CONDUIT    710.13     0  03:46      0.90    0.61    1.00
  YS02006556YS02006558 CONDUIT    710.27     0  03:46      0.90    0.56    1.00
  YSB6556YSB1171       CONDUIT     42.88     0  03:02      0.13    0.04    0.82
  YS02001907YS02006553 CONDUIT    710.05     0  03:46      0.79    0.84    1.00
  YS02006558YS02006561 CONDUIT   1044.12     0  02:49      3.69    2.31    1.00
  YS02001633YS02163601 CONDUIT    413.05     0  02:39      0.53    0.43    1.00
  YS02001644YS02001647 CONDUIT    747.96     0  03:16      0.95    0.44    1.00
  YS02001745YS02001748 CONDUIT    583.34     0  02:32      1.45    0.22    0.97
  YS02001748YS02001751 CONDUIT    443.58     0  03:01      1.03    0.22    1.00
  YS02001751YS02001754 CONDUIT    444.10     0  03:01      0.88    0.21    1.00
  YS02001754YS02001757 CONDUIT    443.29     0  03:01      0.56    0.18    1.00
  YS02001882YS02001884 CONDUIT     11.18     0  02:38      0.12    0.01    1.00
  YS02001884YS02001887 CONDUIT     26.03     0  02:38      0.08    0.03    1.00
  YS02001890YS02001895 CONDUIT    517.82     0  03:00      0.66    0.24    1.00
  YS02001895YS02001898 CONDUIT    517.62     0  03:00      0.66    0.90    1.00
  YS02001898YS02001901 CONDUIT    517.54     0  03:03      0.66    0.33    1.00
  YS02001901YS02001904 CONDUIT    517.77     0  02:59      0.66    0.80    1.00
  YS02001904YS02001907 CONDUIT    518.20     0  02:59      0.66    0.18    1.00
  YS02001887YS02001890 CONDUIT    680.03     0  03:01      0.87    1.16    1.00
  YS02001652YS02001649 CONDUIT    503.76     0  03:01      0.64    0.25    1.00
  YS02001655YS02001652 CONDUIT    503.10     0  03:01      0.94    0.24    1.00
  YS02001658YS02001655 CONDUIT    502.16     0  03:01      1.18    0.21    1.00
  YS02001661YS02001658 CONDUIT    580.01     0  02:29      1.52    0.23    1.00
  YS02001664YS02001661 CONDUIT    671.20     0  02:42      1.43    0.21    0.77
  YSB1154YSB6556       CONDUIT     43.26     0  03:01      0.18    0.08    0.73
  YSB1174YSB1171       CONDUIT     36.63     0  03:01      0.11    0.06    0.85
  YSB1171HS02004479    CONDUIT     75.49     0  03:02      0.54    0.05    0.68
  HS02004881HS02006253 CONDUIT    140.46     0  03:01      2.18    0.03    0.54
  YS02001793JiankangQianchi CONDUIT   1045.21     0  02:49     16.56    0.08    1.00
  YS02001757CaochengTiaoxuchi CONDUIT   1679.88     0  02:40      2.17    0.74    1.00
  WSF200WS02003060     CONDUIT    938.72     0  03:04      1.93    0.21    0.45
  1                    CONDUIT   1334.96     0  03:07      3.59    0.46    0.48
  CC-Pump-1            PUMP       200.00     0  03:20              1.00
  CC-Pump-2            PUMP       200.00     0  03:50              1.00
  JK-Pump-1            PUMP       300.00     0  00:00              1.00
  JK-Pump-2            PUMP       683.00     0  02:40              1.00
  XR-Pump-1            PUMP        95.00     0  00:00              1.00
  XR-Pump-2            PUMP        95.00     0  00:00              1.00
  XR-Pump-3            PUMP        95.00     0  00:00              1.00
  XR-Pump-4            PUMP        95.00     0  00:00              1.00
  
  
  ***************************
  Flow Classification Summary
  ***************************
  
  -------------------------------------------------------------------------------------
                      Adjusted    ---------- Fraction of Time in Flow Class ---------- 
                       /Actual         Up    Down  Sub   Sup   Up    Down  Norm  Inlet 
  Conduit               Length    Dry  Dry   Dry   Crit  Crit  Crit  Crit  Ltd   Ctrl  
  -------------------------------------------------------------------------------------
  WS02003066WSF200        1.00   0.01  0.02  0.00  0.00  0.97  0.00  0.00  0.57  0.00
  WS02006287WS02006284    1.00   0.03  0.01  0.00  0.66  0.30  0.00  0.00  0.65  0.00
  WS02006284WS02006280    1.00   0.04  0.00  0.00  0.00  0.00  0.00  0.96  0.00  0.00
  WS02006280WS02006229    1.00   0.04  0.00  0.00  0.01  0.02  0.00  0.94  0.01  0.00
  WS02006229WS02006228    1.00   0.00  0.00  0.00  1.00  0.00  0.00  0.00  0.00  0.00
  WS02006256WS02006235    1.00   0.00  0.00  0.00  1.00  0.00  0.00  0.00  0.00  0.00
  WS02006253WS02006251    1.00   0.02  0.01  0.00  0.97  0.00  0.00  0.00  0.00  0.00
  WS02006252WS02006251    1.00   0.16  0.00  0.00  0.10  0.00  0.73  0.00  0.00  0.00
  WS02006251WS02006249    1.00   0.00  0.00  0.00  1.00  0.00  0.00  0.00  0.22  0.00
  WS02006249WS02006248    1.00   0.00  0.01  0.00  0.92  0.00  0.07  0.00  0.00  0.00
  WS02006248WS02006247    1.00   0.01  0.00  0.00  0.99  0.00  0.00  0.00  0.13  0.00
  WS02006247WS02006245    1.00   0.00  0.00  0.00  1.00  0.00  0.00  0.00  0.00  0.00
  WS02006245WS02006243    1.00   0.00  0.00  0.00  0.97  0.00  0.00  0.03  0.00  0.00
  WS02006243WS02006242    1.00   0.00  0.00  0.00  1.00  0.00  0.00  0.00  0.22  0.00
  WS02006242WS02006240    1.00   0.00  0.00  0.00  1.00  0.00  0.00  0.00  0.00  0.00
  WS02006240WS02006239    1.00   0.00  0.00  0.00  0.96  0.00  0.00  0.04  0.01  0.00
  WS02006239WS02006238    1.00   0.00  0.00  0.00  1.00  0.00  0.00  0.00  0.13  0.00
  WS02006238WS02006235    1.00   0.00  0.00  0.00  1.00  0.00  0.00  0.00  0.00  0.00
  WS02006235WS02006234    1.00   0.00  0.00  0.00  0.96  0.00  0.04  0.00  0.00  0.00
  WS02006234WS02006232    1.00   0.00  0.00  0.00  1.00  0.00  0.00  0.00  0.09  0.00
  WS02006232WS02006231    1.00   0.00  0.00  0.00  1.00  0.00  0.00  0.00  0.00  0.00
  WS02006231WS02006230    1.00   0.00  0.00  0.00  0.82  0.00  0.18  0.00  0.00  0.00
  WS02006230WS02006229    1.00   0.00  0.00  0.00  1.00  0.00  0.00  0.00  0.00  0.00
  WS02006228WS02006109    1.00   0.00  0.00  0.00  1.00  0.00  0.00  0.00  0.00  0.00
  WS02006116WS02004401    1.00   0.01  0.00  0.00  0.99  0.00  0.00  0.00  0.00  0.00
  WS02006115WS02006116    1.00   0.01  0.00  0.00  0.99  0.00  0.00  0.00  0.00  0.00
  WS02006113WS02006111    1.00   0.01  0.00  0.00  0.03  0.96  0.00  0.00  0.14  0.00
  WS02006112WS02006115    1.00   0.01  0.00  0.00  0.99  0.00  0.00  0.00  0.00  0.00
  WS02006111WS02006112    1.00   0.01  0.00  0.00  0.99  0.00  0.00  0.00  0.89  0.00
  WS02006110WS02006113    1.00   0.00  0.00  0.00  0.99  0.00  0.00  0.00  0.00  0.00
  WS02006109WS02006110    1.00   0.00  0.00  0.00  0.99  0.00  0.00  0.00  0.00  0.00
  WS02004411WS02004412    1.00   0.02  0.00  0.00  0.98  0.00  0.00  0.00  0.00  0.00
  WS02004401WS02004402    1.00   0.01  0.00  0.00  0.99  0.00  0.00  0.00  0.00  0.00
  WS02004413WS02003067    1.00   0.02  0.01  0.00  0.00  0.00  0.98  0.00  0.00  0.00
  WS02004412WS02004413    1.00   0.02  0.00  0.00  0.98  0.00  0.00  0.00  0.01  0.00
  WS02004410WS02004411    1.00   0.01  0.00  0.00  0.99  0.00  0.00  0.00  0.00  0.00
  WS02004409WS02004410    1.00   0.01  0.00  0.00  0.99  0.00  0.00  0.00  0.02  0.00
  WS02004407WS02004409    1.00   0.01  0.00  0.00  0.98  0.00  0.00  0.00  0.95  0.00
  WS02004406WS02004407    1.00   0.00  0.01  0.00  0.99  0.00  0.00  0.00  0.00  0.00
  WS02004405WS02004406    1.00   0.00  0.00  0.00  1.00  0.00  0.00  0.00  0.00  0.00
  WS02004404WS02004405    1.00   0.00  0.00  0.00  1.00  0.00  0.00  0.00  0.00  0.00
  WS02004403WS02004404    1.00   0.00  0.01  0.00  0.99  0.00  0.00  0.00  0.00  0.00
  WS02004402WS02004403    1.00   0.01  0.00  0.00  0.99  0.00  0.00  0.00  0.00  0.00
  WS02004139WS02001211    1.00   0.00  0.00  0.00  1.00  0.00  0.00  0.00  0.00  0.00
  WS02004138WS02004139    1.00   0.00  0.00  0.00  1.00  0.00  0.00  0.00  1.00  0.00
  WS02003067WS02003066    1.00   0.02  0.00  0.00  0.97  0.00  0.00  0.00  0.00  0.00
  WS02001213WS02003059    1.00   0.00  0.00  0.00  1.00  0.00  0.00  0.00  0.00  0.00
  WS02001212WS02001213    1.00   0.00  0.00  0.00  0.93  0.00  0.07  0.00  0.00  0.00
  WS02001211WS02001212    1.00   0.00  0.00  0.00  1.00  0.00  0.00  0.00  0.00  0.00
  WS02003072WS02003073    1.00   0.00  0.00  0.00  0.00  0.00  0.00  1.00  0.00  0.00
  WS02003069WS02003072    1.00   0.00  0.00  0.00  1.00  0.00  0.00  0.00  0.09  0.00
  WS02003060WS02003069    1.00   0.00  0.00  0.00  0.99  0.01  0.00  0.00  0.08  0.00
  WS02003059WS02003060    1.00   0.00  0.00  0.00  1.00  0.00  0.00  0.00  0.01  0.00
  HS02004901HS02004770    1.00   0.03  0.00  0.00  0.97  0.00  0.00  0.00  0.00  0.00
  HS02004876HS02004881    1.00   0.01  0.00  0.00  0.92  0.07  0.00  0.00  0.00  0.00
  HS02004870HS02004876    1.00   0.00  0.00  0.00  0.99  0.00  0.00  0.00  0.95  0.00
  HS02004842HS02004848    1.00   0.00  0.03  0.00  0.97  0.00  0.00  0.00  0.54  0.00
  HS02004837HS02004842    1.00   0.00  0.00  0.00  1.00  0.00  0.00  0.00  0.11  0.00
  HS02004830HS02004837    1.00   0.00  0.00  0.00  1.00  0.00  0.00  0.00  0.99  0.00
  HS02004824HS02004830    1.00   0.00  0.00  0.00  1.00  0.00  0.00  0.00  0.01  0.00
  HS02004817HS02004824    1.00   0.00  0.00  0.00  1.00  0.00  0.00  0.00  0.97  0.00
  HS02004770HS02004777    1.00   0.00  0.03  0.00  0.97  0.00  0.00  0.00  0.03  0.00
  HS02004799HS02004480    1.00   0.00  0.01  0.00  0.96  0.00  0.03  0.00  0.00  0.00
  HS02004792HS02004799    1.00   0.00  0.00  0.00  1.00  0.00  0.00  0.00  0.98  0.00
  HS02004788HS02004792    1.00   0.00  0.00  0.00  1.00  0.00  0.00  0.00  0.98  0.00
  HS02004785HS02004788    1.00   0.00  0.00  0.00  1.00  0.00  0.00  0.00  0.00  0.00
  HS02004777HS02004785    1.00   0.00  0.00  0.00  1.00  0.00  0.00  0.00  0.12  0.00
  HS02004480HS02004478    1.00   0.03  0.00  0.00  0.71  0.00  0.00  0.25  0.00  0.00
  HS02004479HS02004480    1.00   0.01  0.00  0.00  0.99  0.00  0.00  0.00  0.12  0.00
  HS02004862HS02004870    1.00   0.00  0.00  0.00  1.00  0.00  0.00  0.00  0.04  0.00
  HS02004848HS02004852    1.00   0.03  0.00  0.00  0.97  0.00  0.00  0.00  0.64  0.00
  HS02004856HS02004862    1.00   0.00  0.04  0.00  0.96  0.00  0.00  0.00  0.83  0.00
  HS02004852HS02004856    1.00   0.03  0.00  0.00  0.96  0.00  0.00  0.00  0.80  0.00
  HS02004802HS02004478    1.00   0.03  0.00  0.00  0.96  0.00  0.00  0.00  0.02  0.00
  HS02004478WS02006287    1.00   0.04  0.00  0.00  0.78  0.18  0.00  0.00  0.65  0.00
  HS02004817HS02004807    1.00   0.00  0.03  0.00  0.97  0.00  0.00  0.00  0.01  0.00
  HS02004807HS02004802    1.00   0.03  0.00  0.00  0.96  0.00  0.00  0.00  0.00  0.00
  YS02001759YS02001757    1.00   0.00  0.00  0.00  1.00  0.00  0.00  0.00  0.16  0.00
  YS02001762YS02001759    1.00   0.00  0.00  0.00  1.00  0.00  0.00  0.00  0.03  0.00
  YS02001765YS02001762    1.00   0.00  0.00  0.00  1.00  0.00  0.00  0.00  0.14  0.00
  YS02001770YS02001767    1.00   0.00  0.00  0.00  1.00  0.00  0.00  0.00  0.00  0.00
  YS02001774YS02001770    1.00   0.00  0.03  0.00  0.96  0.00  0.00  0.00  0.03  0.00
  YS02001779YS02001774    1.00   0.00  0.00  0.00  1.00  0.00  0.00  0.00  0.19  0.00
  YS02001649YS02001757    1.00   0.00  0.00  0.00  1.00  0.00  0.00  0.00  0.16  0.00
  YS02001767YS02001765    1.00   0.00  0.00  0.00  1.00  0.00  0.00  0.00  0.00  0.00
  YS02006561YS02001783    1.00   0.05  0.00  0.00  0.34  0.62  0.00  0.00  0.46  0.00
  YS02001783YS02001784    1.00   0.00  0.05  0.00  0.95  0.00  0.00  0.00  0.00  0.00
  YS02001784YS02001785    1.00   0.00  0.00  0.00  1.00  0.00  0.00  0.00  0.18  0.00
  YS02001788YS02001790    1.00   0.00  0.00  0.00  0.42  0.58  0.00  0.00  0.37  0.00
  YS02001790YS02001791    1.00   0.00  0.00  0.00  0.39  0.61  0.00  0.00  0.44  0.00
  YS02001791YS02001793    1.00   0.00  0.00  0.00  0.42  0.58  0.00  0.00  0.02  0.00
  YS02001910YS02001907    1.00   0.00  0.00  0.00  0.99  0.00  0.00  0.01  0.12  0.00
  YS02001786YS02001788    1.00   0.00  0.00  0.00  0.40  0.60  0.00  0.00  0.00  0.00
  YS02001915YS02001910    1.00   0.00  0.00  0.00  0.99  0.01  0.00  0.00  0.16  0.00
  YS02001918YS02001915    1.00   0.00  0.00  0.00  0.99  0.01  0.00  0.00  0.54  0.00
  YS02001923YS02001920    1.00   0.00  0.00  0.00  1.00  0.00  0.00  0.00  0.82  0.00
  YS02001926YS02001923    1.00   0.00  0.02  0.00  0.17  0.00  0.81  0.00  0.00  0.00
  YS02001929YS02001926    1.00   0.00  0.03  0.00  0.97  0.00  0.00  0.00  0.74  0.00
  YS02001920YS02001918    1.00   0.00  0.00  0.00  1.00  0.00  0.00  0.00  0.00  0.00
  YS02001629YS02163301    1.00   0.04  0.00  0.00  0.96  0.00  0.00  0.00  0.00  0.00
  YS02001619YS02001622    1.00   0.03  0.00  0.00  0.97  0.00  0.00  0.00  0.00  0.00
  YS02001622YS02001625    1.00   0.03  0.00  0.00  0.97  0.00  0.00  0.00  0.05  0.00
  YS02001625YS02001629    1.00   0.03  0.01  0.00  0.94  0.00  0.02  0.00  0.00  0.00
  YS02163301YS02001633    1.00   0.00  0.04  0.00  0.96  0.00  0.00  0.00  0.00  0.00
  YS02163601YS02164001    1.00   0.00  0.02  0.00  0.98  0.00  0.00  0.00  0.00  0.00
  YS02164001YS02001641    1.00   0.00  0.02  0.00  0.98  0.00  0.00  0.00  0.06  0.00
  YS02001641YS02001644    1.00   0.00  0.00  0.00  1.00  0.00  0.00  0.00  0.00  0.00
  YS02001647YS02001649    1.00   0.00  0.04  0.00  0.95  0.00  0.00  0.00  0.01  0.00
  YS02006553YS02006556    1.00   0.00  0.00  0.00  1.00  0.00  0.00  0.00  0.03  0.00
  YS02006556YS02006558    1.00   0.00  0.00  0.00  1.00  0.00  0.00  0.00  0.00  0.00
  YSB6556YSB1171          1.00   0.01  0.02  0.00  0.97  0.00  0.00  0.00  0.00  0.00
  YS02001907YS02006553    1.00   0.00  0.01  0.00  0.99  0.00  0.00  0.00  0.00  0.00
  YS02006558YS02006561    1.00   0.05  0.00  0.00  0.16  0.79  0.00  0.00  0.46  0.00
  YS02001633YS02163601    1.00   0.00  0.00  0.00  1.00  0.00  0.00  0.00  0.15  0.00
  YS02001644YS02001647    1.00   0.00  0.04  0.00  0.96  0.00  0.00  0.00  0.00  0.00
  YS02001745YS02001748    1.00   0.00  0.00  0.00  0.91  0.00  0.00  0.08  0.04  0.00
  YS02001748YS02001751    1.00   0.00  0.00  0.00  0.97  0.03  0.00  0.00  0.15  0.00
  YS02001751YS02001754    1.00   0.00  0.00  0.00  0.95  0.00  0.00  0.05  0.02  0.00
  YS02001754YS02001757    1.00   0.00  0.00  0.00  1.00  0.00  0.00  0.00  0.18  0.00
  YS02001882YS02001884    1.00   0.04  0.00  0.00  0.96  0.00  0.00  0.00  0.00  0.00
  YS02001884YS02001887    1.00   0.02  0.01  0.00  0.97  0.00  0.00  0.00  0.00  0.00
  YS02001890YS02001895    1.00   0.00  0.04  0.00  0.96  0.00  0.00  0.00  0.00  0.00
  YS02001895YS02001898    1.00   0.04  0.00  0.00  0.95  0.00  0.01  0.00  0.00  0.00
  YS02001898YS02001901    1.00   0.04  0.00  0.00  0.96  0.00  0.00  0.00  0.01  0.00
  YS02001901YS02001904    1.00   0.04  0.00  0.00  0.96  0.00  0.00  0.00  0.00  0.00
  YS02001904YS02001907    1.00   0.00  0.04  0.00  0.96  0.00  0.00  0.00  0.00  0.00
  YS02001887YS02001890    1.00   0.00  0.00  0.00  0.99  0.00  0.01  0.00  0.00  0.00
  YS02001652YS02001649    1.00   0.00  0.00  0.00  1.00  0.00  0.00  0.00  0.17  0.00
  YS02001655YS02001652    1.00   0.00  0.00  0.00  0.95  0.00  0.00  0.05  0.02  0.00
  YS02001658YS02001655    1.00   0.00  0.04  0.00  0.94  0.03  0.00  0.00  0.10  0.00
  YS02001661YS02001658    1.00   0.04  0.00  0.00  0.91  0.05  0.00  0.00  0.11  0.00
  YS02001664YS02001661    1.00   0.03  0.00  0.00  0.93  0.04  0.00  0.00  0.20  0.00
  YSB1154YSB6556          1.00   0.03  0.00  0.00  0.97  0.00  0.00  0.00  0.02  0.00
  YSB1174YSB1171          1.00   0.02  0.01  0.00  0.97  0.00  0.00  0.00  0.00  0.00
  YSB1171HS02004479       1.00   0.01  0.00  0.00  0.98  0.00  0.00  0.00  0.10  0.00
  HS02004881HS02006253    1.00   0.02  0.00  0.00  0.78  0.02  0.00  0.18  0.60  0.00
  YS02001793JiankangQianchi    1.00   0.00  0.00  0.00  0.64  0.35  0.00  0.00  0.36  0.00
  YS02001757CaochengTiaoxuchi    1.00   0.00  0.06  0.00  0.94  0.00  0.00  0.00  0.00  0.00
  WSF200WS02003060        1.00   0.00  0.01  0.00  0.97  0.02  0.00  0.00  0.30  0.00
  1                       1.00   0.00  0.00  0.00  0.00  1.00  0.00  0.00  0.56  0.00
  
  
  *************************
  Conduit Surcharge Summary
  *************************
  
  ----------------------------------------------------------------------------
                                                           Hours        Hours 
                         --------- Hours Full --------   Above Full   Capacity
  Conduit                Both Ends  Upstream  Dnstream   Normal Flow   Limited
  ----------------------------------------------------------------------------
  WS02006229WS02006228        4.48      4.56      4.48      5.32         4.48
  WS02006256WS02006235        6.14      6.14      6.84      4.74         0.01
  WS02006253WS02006251        1.87      1.88      1.98      0.01         0.01
  WS02006252WS02006251        1.46      1.46      2.26      1.89         0.01
  WS02006251WS02006249        1.90      1.91      2.02      1.18         0.96
  WS02006249WS02006248        1.94      1.94      2.02      3.92         0.01
  WS02006248WS02006247        2.01      2.01      2.33      0.01         0.01
  WS02006247WS02006245        2.30      2.40      2.30      4.42         2.16
  WS02006245WS02006243        2.36      2.37      2.58      0.40         0.36
  WS02006243WS02006242        2.68      2.68      3.83      0.01         0.01
  WS02006242WS02006240        3.69      3.69      3.94      1.99         0.01
  WS02006240WS02006239        3.70      3.72      3.79      1.20         0.68
  WS02006239WS02006238        3.93      3.97      4.03      1.27         0.81
  WS02006238WS02006235        3.99      3.99      4.16      0.01         0.01
  WS02006235WS02006234        3.76      3.76      3.95      5.95         0.01
  WS02006234WS02006232        3.84      3.84      4.24      0.92         0.89
  WS02006232WS02006231        2.19      2.19      4.24      1.05         0.01
  WS02006231WS02006230        1.70      1.70      2.29      6.18         0.01
  WS02006230WS02006229        4.89      5.10      4.89      6.26         4.89
  WS02006228WS02006109        4.51      4.71      4.51      5.61         4.51
  WS02006116WS02004401        0.44      0.44      0.44      0.38         0.39
[...]
  YS02001770YS02001767        5.69      5.69      5.70      0.24         0.69
  YS02001774YS02001770        5.68      5.68      5.74      0.01         0.01
  YS02001779YS02001774        5.56      5.56      5.74      0.01         0.01
  YS02001649YS02001757        5.75      5.75      5.86      0.01         0.01
  YS02001767YS02001765        5.70      5.70      5.72      0.01         0.01
  YS02006561YS02001783        0.90      0.90      1.49      0.01         0.01
  YS02001783YS02001784        1.47      1.49      1.47      1.46         1.29
  YS02001784YS02001785        1.38      1.47      1.38      2.49         1.37
  YS02001788YS02001790        1.22      1.22      2.23      0.01         0.01
  YS02001790YS02001791        2.23      2.23      2.33      1.17         1.16
  YS02001791YS02001793        2.33      2.33      2.70      0.01         0.01
  YS02001910YS02001907        1.28      1.28      1.92      0.01         0.01
  YS02001786YS02001788        1.22      1.38      1.22      2.03         1.22
  YS02001915YS02001910        1.09      1.09      1.28      0.01         0.01
  YS02001918YS02001915        0.88      0.88      1.09      0.01         0.01
  YS02001923YS02001920        0.74      0.74      0.91      0.01         0.01
  YS02001920YS02001918        0.88      0.88      0.91      0.01         0.01
  YS02001629YS02163301        5.67      5.67      5.69      0.01         0.01
  YS02001619YS02001622        5.37      5.37      5.41      0.01         0.01
  YS02001622YS02001625        5.41      5.41      5.64      0.01         0.01
  YS02001625YS02001629        5.39      5.39      5.64      0.01         0.01
  YS02163301YS02001633        5.69      5.69      5.72      0.01         0.01
  YS02163601YS02164001        5.72      5.72      5.75      0.01         0.01
  YS02164001YS02001641        5.72      5.72      5.73      0.01         0.02
  YS02001641YS02001644        5.73      5.73      5.73      1.72         1.84
  YS02001647YS02001649        5.62      5.62      5.75      0.01         0.01
  YS02006553YS02006556        1.50      1.50      1.99      0.01         0.01
  YS02006556YS02006558        1.64      1.64      2.07      0.01         0.01
  YSB6556YSB1171              0.01      0.01      0.07      0.01         0.01
  YS02001907YS02006553        2.52      2.52      2.75      0.01         0.01
  YS02006558YS02006561        1.02      1.46      1.02      2.36         1.02
  YS02001633YS02163601        5.71      5.71      5.75      0.01         0.01
  YS02001644YS02001647        5.62      5.62      5.73      0.01         0.01
  YS02001745YS02001748        0.01      0.01      5.22      0.01         0.01
  YS02001748YS02001751        5.27      5.27      5.38      0.01         0.01
  YS02001751YS02001754        5.38      5.38      5.58      0.01         0.01
  YS02001754YS02001757        5.62      5.62      5.86      0.01         0.01
  YS02001882YS02001884        1.11      1.11      1.14      0.01         0.01
  YS02001884YS02001887        1.19      1.19      1.21      0.01         0.01
  YS02001890YS02001895        1.07      1.07      1.30      0.01         0.01
  YS02001895YS02001898        1.06      1.06      1.07      0.01         0.01
  YS02001898YS02001901        1.08      1.08      1.18      0.01         0.01
  YS02001901YS02001904        1.16      1.16      1.18      0.01         0.01
  YS02001904YS02001907        1.16      1.16      2.01      0.01         0.01
  YS02001887YS02001890        1.24      1.24      1.27      0.16         0.01
  YS02001652YS02001649        5.63      5.63      5.75      0.01         0.01
  YS02001655YS02001652        5.39      5.39      5.61      0.01         0.01
  YS02001658YS02001655        5.25      5.25      5.40      0.01         0.01
  YS02001661YS02001658        0.12      0.12      5.25      0.01         0.01
  YS02001664YS02001661        0.01      0.01      1.33      0.01         0.01
  HS02004881HS02006253        0.01      0.01      1.04      0.01         0.01
  YS02001793JiankangQianchi        2.60      2.60      4.08      0.01         0.01
  YS02001757CaochengTiaoxuchi        5.11      5.11      5.86      0.01         0.01
  
  
  ***************
  Pumping Summary
  ***************
  
  ---------------------------------------------------------------------------------------------------------
                                                  Min       Avg       Max     Total     Power    % Time Off
                        Percent   Number of      Flow      Flow      Flow    Volume     Usage    Pump Curve
  Pump                 Utilized   Start-Ups       LPS       LPS       LPS  10^6 ltr     Kw-hr    Low   High
  ---------------------------------------------------------------------------------------------------------
  CC-Pump-1               63.83           1      0.00    175.74    200.00     3.060      2.97    0.0    0.0
  CC-Pump-2               38.29           7      0.00    103.74    200.00     1.320      1.72    0.0    0.0
  JK-Pump-1               65.94           5      0.00    226.38    300.00     4.200     59.79    0.0    0.0
  JK-Pump-2               53.19           4      0.00    386.82    683.00     6.333     83.71    0.0   95.8
  XR-Pump-1               95.75           3      0.00     93.41     95.00     2.451     22.29    0.0    0.0
  XR-Pump-2               95.75           3      0.00     93.41     95.00     2.451     22.29    0.0    0.0
  XR-Pump-3               95.75           3      0.00     93.41     95.00     2.451     22.29    0.0    0.0
  XR-Pump-4               95.75           3      0.00     93.41     95.00     2.451     22.29    0.0    0.0
  
  
  ***************************
  Link Pollutant Load Summary
  ***************************
  
  ------------------------------------------------------------------------------------------
                                 COD            SS            TN            TP         NH4-N
  Link                            kg            kg            kg            kg            kg
  ------------------------------------------------------------------------------------------
  WS02003066WSF200           922.404      1720.051        23.803         2.059        12.483
  WS02006287WS02006284       319.428       607.987        10.315         1.015         5.679
  WS02006284WS02006280       319.901       608.756        10.361         1.021         5.708
  WS02006280WS02006229       319.846       608.638        10.358         1.021         5.706
  WS02006229WS02006228       917.869      1711.954        23.186         1.975        12.089
  WS02006256WS02006235       222.071       409.558         4.922         0.384         2.492
  WS02006253WS02006251        61.677       121.221         1.354         0.101         0.670
  WS02006252WS02006251       372.527       681.164         7.742         0.553         3.800
  WS02006251WS02006249       426.372       788.293         8.956         0.646         4.407
  WS02006249WS02006248       386.092       711.937         8.128         0.586         4.002
  WS02006248WS02006247       385.504       710.897         8.116         0.585         3.995
  WS02006247WS02006245       384.786       709.605         8.100         0.584         3.987
  WS02006245WS02006243       383.991       708.261         8.079         0.583         3.976
  WS02006243WS02006242       383.366       707.152         8.067         0.582         3.971
  WS02006242WS02006240       382.396       705.389         8.052         0.581         3.965
  WS02006240WS02006239       381.926       704.447         8.057         0.583         3.970
  WS02006239WS02006238       382.652       705.500         8.113         0.589         4.004
  WS02006238WS02006235       383.011       705.936         8.140         0.593         4.021
  WS02006235WS02006234       600.951      1108.475        12.899         0.960         6.420
  WS02006234WS02006232       600.571      1107.769        12.897         0.960         6.419
  WS02006232WS02006231       600.062      1106.858        12.884         0.959         6.413
  WS02006231WS02006230       599.558      1105.943        12.875         0.959         6.409
  WS02006230WS02006229       598.691      1104.458        12.850         0.956         6.395
  WS02006228WS02006109       917.312      1710.942        23.173         1.974        12.083
  WS02006116WS02004401       932.809      1738.762        24.055         2.079        12.612
  WS02006115WS02006116       933.746      1740.414        24.083         2.081        12.627
  WS02006113WS02006111       923.753      1720.814        23.925         2.070        12.558
  WS02006112WS02006115       934.808      1742.265        24.122         2.085        12.649
  WS02006111WS02006112       923.473      1720.372        23.916         2.069        12.553
  WS02006110WS02006113       924.341      1721.884        23.945         2.072        12.569
  WS02006109WS02006110       925.317      1723.632        23.982         2.075        12.590
  WS02004411WS02004412       925.706      1725.876        23.919         2.070        12.548
  WS02004401WS02004402       931.786      1736.966        24.020         2.075        12.593
  WS02004413WS02003067       923.088      1721.324        23.821         2.060        12.493
  WS02004412WS02004413       924.562      1723.867        23.881         2.067        12.527
  WS02004410WS02004411       926.670      1727.596        23.949         2.073        12.565
  WS02004409WS02004410       927.663      1729.350        23.982         2.076        12.583
  WS02004407WS02004409       928.461      1730.780        24.005         2.078        12.595
  WS02004406WS02004407       928.683      1731.223        24.006         2.078        12.595
  WS02004405WS02004406       929.986      1733.523        24.057         2.083        12.624
  WS02004404WS02004405       930.617      1734.707        24.053         2.082        12.619
  WS02004403WS02004404       930.050      1733.903        23.962         2.070        12.561
  WS02004402WS02004403       930.904      1735.403        23.992         2.073        12.578
  WS02004139WS02001211      1370.017      2275.147       111.142        13.566        68.507
  WS02004138WS02004139      1376.456      2285.896       111.641        13.626        68.813
  WS02003067WS02003066       922.639      1720.475        23.811         2.060        12.488
  WS02001213WS02003059      1403.016      2326.968       114.572        13.999        70.662
  WS02001212WS02001213      1412.504      2342.677       115.343        14.093        71.137
  WS02001211WS02001212      1414.317      2345.653       115.495        14.112        71.232
  WS02003072WS02003073      2425.372      4205.691       148.356        17.311        89.400
  WS02003069WS02003072      2430.459      4214.086       148.742        17.358        89.637
  WS02003060WS02003069      2432.939      4218.395       148.872        17.372        89.714
  WS02003059WS02003060      1400.117      2322.078       114.353        13.972        70.528
  HS02004901HS02004770        13.093        25.472         0.248         0.019         0.116
  HS02004876HS02004881        45.509        90.333         0.999         0.073         0.491
  HS02004870HS02004876        34.378        68.095         0.798         0.060         0.395
  HS02004842HS02004848         6.456        12.342         0.134         0.009         0.062
  HS02004837HS02004842        11.055        19.634         0.603         0.068         0.356
  HS02004830HS02004837        70.296       122.723         4.644         0.552         2.827
  HS02004824HS02004830        71.067       123.977         4.715         0.561         2.872
  HS02004817HS02004824        97.160       176.397         5.255         0.596         3.135
  HS02004770HS02004777        49.658        97.705         1.021         0.069         0.472
  HS02004799HS02004480       162.301       310.786         4.263         0.379         2.209
  HS02004792HS02004799       147.256       280.083         4.028         0.367         2.105
  HS02004788HS02004792        82.806       157.663         2.665         0.255         1.440
  HS02004785HS02004788        51.114       100.033         1.172         0.089         0.567
  HS02004777HS02004785        50.440        98.930         1.112         0.081         0.530
  HS02004480HS02004478       204.787       395.108         4.971         0.429         2.543
  HS02004479HS02004480        46.123        90.102         1.037         0.091         0.538
  HS02004862HS02004870        25.797        50.333         0.628         0.050         0.314
  HS02004848HS02004852        10.251        19.883         0.210         0.014         0.097
  HS02004856HS02004862        17.522        34.745         0.350         0.023         0.164
  HS02004852HS02004856        10.254        19.887         0.210         0.014         0.097
  HS02004802HS02004478       115.331       214.023         5.398         0.592         3.169
  HS02004478WS02006287       319.644       608.368        10.332         1.017         5.689
  HS02004817HS02004807        95.853       174.298         5.130         0.581         3.057
  HS02004807HS02004802       115.589       214.431         5.430         0.596         3.190
  YS02001759YS02001757       364.479       669.056         7.288         0.505         3.559
  YS02001762YS02001759       191.466       351.898         4.026         0.282         1.987
  YS02001765YS02001762       192.021       353.513         4.055         0.284         2.004
  YS02001770YS02001767       193.004       357.288         3.884         0.257         1.885
  YS02001774YS02001770       250.860       490.619         4.789         0.319         2.314
  YS02001779YS02001774       249.650       488.149         4.866         0.332         2.369
  YS02001649YS02001757       314.934       570.129         6.300         0.436         3.023
  YS02001767YS02001765       193.153       356.204         4.089         0.287         2.022
  YS02006561YS02001783      1026.759      1903.520        21.514         1.606        10.705
  YS02001783YS02001784      1026.608      1903.270        21.510         1.605        10.703
  YS02001784YS02001785      1033.900      1914.928        22.222         1.694        11.149
  YS02001788YS02001790      1034.474      1915.838        22.294         1.704        11.194
  YS02001790YS02001791      1035.445      1917.378        22.393         1.716        11.256
  YS02001791YS02001793      1035.327      1917.175        22.388         1.716        11.253
  YS02001910YS02001907       391.168       721.393         9.387         0.718         4.810
  YS02001786YS02001788      1034.108      1915.263        22.250         1.698        11.167
  YS02001915YS02001910       391.225       721.488         9.339         0.711         4.777
  YS02001918YS02001915       186.178       328.303         5.127         0.467         2.761
  YS02001923YS02001920       165.989       295.794         3.177         0.223         1.542
  YS02001926YS02001923       164.642       293.517         3.103         0.214         1.498
  YS02001929YS02001926       164.219       292.805         3.066         0.210         1.475
  YS02001920YS02001918       185.723       327.340         5.089         0.462         2.738
  YS02001629YS02163301        96.090       169.912         2.028         0.131         0.946
  YS02001619YS02001622       175.874       321.132         3.602         0.236         1.684
  YS02001622YS02001625       174.673       319.220         3.573         0.234         1.670
  YS02001625YS02001629        97.181       171.698         2.053         0.132         0.957
  YS02163301YS02001633        96.447       170.772         2.031         0.132         0.948
  YS02163601YS02164001       405.716       733.134         7.898         0.562         3.783
  YS02164001YS02001641       405.194       732.245         7.878         0.560         3.772
  YS02001641YS02001644       405.240       732.239         7.874         0.560         3.769
  YS02001647YS02001649       410.984       756.859         8.093         0.564         3.857
  YS02006553YS02006556       692.897      1274.086        14.889         1.140         7.493
  YS02006556YS02006558       692.789      1273.869        14.859         1.136         7.473
  YSB6556YSB1171              26.518        51.961         0.537         0.045         0.271
  YS02001907YS02006553       693.003      1274.312        14.897         1.141         7.498
  YS02006558YS02006561      1026.741      1903.494        21.513         1.605        10.705
  YS02001633YS02163601       406.454       734.291         7.880         0.558         3.768
  YS02001644YS02001647       419.592       772.066         8.240         0.574         3.926
  YS02001745YS02001748       249.120       465.993         5.415         0.370         2.681
  YS02001748YS02001751       247.655       463.128         5.484         0.383         2.733
  YS02001751YS02001754       246.810       461.702         5.489         0.385         2.739
  YS02001754YS02001757       247.544       462.790         5.652         0.407         2.846
  YS02001882YS02001884         3.171         5.485         0.064         0.005         0.032
  YS02001884YS02001887         6.688        11.820         0.132         0.010         0.066
  YS02001890YS02001895       450.963       846.436         8.302         0.624         4.049
  YS02001895YS02001898       450.815       846.245         8.295         0.624         4.046
  YS02001898YS02001901       450.641       845.942         8.292         0.623         4.044
  YS02001901YS02001904       450.479       845.709         8.298         0.625         4.049
  YS02001904YS02001907       450.703       846.051         8.351         0.632         4.083
  YS02001887YS02001890       468.282       880.785         8.646         0.653         4.223
  YS02001652YS02001649       198.624       369.724         3.993         0.288         1.873
  YS02001655YS02001652       199.119       370.544         4.006         0.289         1.880
  YS02001658YS02001655       198.515       369.600         3.916         0.277         1.822
  YS02001661YS02001658       201.191       374.411         3.970         0.281         1.847
  YS02001664YS02001661       219.124       403.748         4.378         0.308         2.033
  YSB1154YSB6556              26.083        51.267         0.486         0.038         0.239
  YSB1174YSB1171              18.021        35.561         0.361         0.029         0.181
  YSB1171HS02004479           46.088        90.048         1.040         0.092         0.540
  HS02004881HS02006253        51.563       102.740         1.102         0.079         0.539
  YS02001793JiankangQianchi      1035.974      1918.252        22.418         1.719        11.271
  YS02001757CaochengTiaoxuchi       637.448      1152.436        13.423         0.952         6.590
  WSF200WS02003060           922.342      1719.886        23.808         2.060        12.487
  1                         2431.831      4215.303       149.132        17.411        89.891
  CC-Pump-1                  257.603       470.450         5.360         0.382         2.631
  CC-Pump-2                  114.948       210.755         2.382         0.171         1.170
  JK-Pump-1                  301.494       560.938         6.406         0.486         3.206
  JK-Pump-2                  562.626      1061.771        11.634         0.875         5.789
  XR-Pump-1                  345.040       573.004        27.987         3.416        17.250
  XR-Pump-2                  345.040       573.004        27.987         3.416        17.250
  XR-Pump-3                  345.040       573.004        27.987         3.416        17.250
  XR-Pump-4                  345.040       573.004        27.987         3.416        17.250
  

  Analysis begun on:  Tue Jul 13 20:17:18 2021
  Analysis ended on:  Tue Jul 13 20:17:21 2021
  Total elapsed time: 00:00:03