
  EPA STORM WATER MANAGEMENT MODEL - VERSION 5.1 (Build 5.3.0.dev0)
  --------------------------------------------------------------

  WARNING 04: minimum elevation drop used for Conduit WS02004404WS02004405
  WARNING 03: negative offset ignored for Link YS02001904YS02001907
  
  *********************************************************
  NOTE: The summary statistics displayed in this report are
  based on results found at every computational time step,  
  not just on results from each reporting time step.
  *********************************************************
  
  ****************
  Analysis Options
  ****************
  Flow Units ............... LPS
  Process Models:
    Rainfall/Runoff ........ YES
    RDII ................... NO
    Snowmelt ............... NO
    Groundwater ............ NO
    Flow Routing ........... YES
    Ponding Allowed ........ NO
    Water Quality .......... YES
  Infiltration Method ...... HORTON
  Flow Routing Method ...... DYNWAVE
  Surcharge Method ......... EXTRAN
  Starting Date ............ 08/28/2015 08:00:00
  Ending Date .............. 08/28/2015 15:50:00
  Antecedent Dry Days ...... 8.0
  Report Time Step ......... 00:01:00
  Wet Time Step ............ 00:01:00
  Dry Time Step ............ 00:01:00
  Routing Time Step ........ 5.00 sec
  Variable Time Step ....... YES
  Maximum Trials ........... 8
  Number of Threads ........ 4
  Head Tolerance ........... 0.001500 m
  
  
  **************************        Volume         Depth
  Runoff Quantity Continuity     hectare-m            mm
  **************************     ---------       -------
  Total Precipitation ......         6.144        13.452
  Evaporation Loss .........         0.000         0.000
  Infiltration Loss ........         1.064         2.328
  Surface Runoff ...........         4.147         9.079
  Final Storage ............         0.935         2.047
  Continuity Error (%) .....        -0.020
  
  
  **************************           COD            SS            TN            TP         NH4-N
  Runoff Quality Continuity             kg            kg            kg            kg            kg
  **************************    ----------    ----------    ----------    ----------    ----------
  Initial Buildup ..........     41378.656     70582.865      1804.177       168.684      1032.807
  Surface Buildup ..........        21.799        40.924         2.400         0.218         1.395
  Wet Deposition ...........         0.000         0.000         0.000         0.000         0.000
  Sweeping Removal .........         0.000         0.000         0.000         0.000         0.000
  Infiltration Loss ........        97.311       184.943         1.849         0.130         0.881
  BMP Removal ..............         0.000         0.000         0.000         0.000         0.000
  Surface Runoff ...........      3769.819      7064.251        72.781         4.964        34.599
  Remaining Buildup ........     37531.916     63371.884      1731.919       163.806       998.709
  Continuity Error (%) .....         0.003         0.004         0.002         0.001         0.001
  
  
  **************************        Volume        Volume
  Flow Routing Continuity        hectare-m      10^6 ltr
  **************************     ---------     ---------
  Dry Weather Inflow .......         0.616         6.165
  Wet Weather Inflow .......         4.145        41.451
  Groundwater Inflow .......         0.000         0.000
  RDII Inflow ..............         0.000         0.000
  External Inflow ..........         0.102         1.024
  External Outflow .........         2.059        20.592
  Flooding Loss ............         2.357        23.570
  Evaporation Loss .........         0.000         0.000
  Exfiltration Loss ........         0.000         0.000
  Initial Stored Volume ....         0.076         0.761
  Final Stored Volume ......         0.638         6.380
  Continuity Error (%) .....        -2.311
  
  
  **************************           COD            SS            TN            TP         NH4-N
  Quality Routing Continuity            kg            kg            kg            kg            kg
  **************************    ----------    ----------    ----------    ----------    ----------
  Dry Weather Inflow .......      1541.201      2465.922       147.955        18.494        92.472
  Wet Weather Inflow .......      3769.060      7063.001        72.764         4.963        34.592
  Groundwater Inflow .......         0.000         0.000         0.000         0.000         0.000
  RDII Inflow ..............         0.000         0.000         0.000         0.000         0.000
  External Inflow ..........       183.418       293.469        17.608         2.201        11.005
  External Outflow .........      2455.797      4259.076       149.683        17.454        90.173
  Flooding Loss ............      2382.742      4441.605        61.756         5.424        32.541
  Exfiltration Loss ........         0.000         0.000         0.000         0.000         0.000
  Mass Reacted .............         0.000         0.000         0.000         0.000         0.000
  Initial Stored Mass ......         0.000         0.000         0.000         0.000         0.000
  Final Stored Mass ........       527.106       904.119        23.788         2.543        13.794
  Continuity Error (%) .....         2.331         2.215         1.301         0.927         1.130
  
  
  *************************
  Highest Continuity Errors
  *************************
  Node HS02004842 (13.41%)
  Node JK-storage (-10.86%)
  Node YS02001884 (10.14%)
  Node WS02006253 (2.71%)
  Node HS02004817 (2.53%)
  
  
  ***************************
  Time-Step Critical Elements
  ***************************
  Link WS02006252WS02006251 (65.66%)
  Link WS02006280WS02006229 (10.58%)
  Link WS02006238WS02006235 (5.82%)
  Link WS02004404WS02004405 (4.10%)
  Link YS02001793JiankangQianchi (1.68%)
  
  
  ********************************
  Highest Flow Instability Indexes
  ********************************
  Link YS02163301YS02001633 (42)
  Link YS02001629YS02163301 (42)
  Link YS02163601YS02164001 (41)
  Link YS02001619YS02001622 (40)
  Link WS02006113WS02006111 (38)
  
  
  *************************
  Routing Time Step Summary
  *************************
  Minimum Time Step           :     0.50 sec
  Average Time Step           :     1.12 sec
  Maximum Time Step           :     5.00 sec
  Percent in Steady State     :    -0.00
  Average Iterations per Step :     4.46
  Percent Not Converging      :    19.71
  
  
  ***************************
  Subcatchment Runoff Summary
  ***************************
  
  ------------------------------------------------------------------------------------------------------------------------------
                            Total      Total      Total      Total     Imperv       Perv      Total       Total     Peak  Runoff
                           Precip      Runon       Evap      Infil     Runoff     Runoff     Runoff      Runoff   Runoff   Coeff
  Subcatchment                 mm         mm         mm         mm         mm         mm         mm    10^6 ltr      LPS
  ------------------------------------------------------------------------------------------------------------------------------
  sub0                      13.45       0.00       0.00       0.63      12.47       0.31      12.77        0.01     3.75   0.950
  sub1                      13.45       0.00       0.00       1.12      11.88       0.36      12.24        0.08    25.66   0.910
  sub2                      13.45       0.00       0.00       4.44       8.39       0.53       8.92        0.08    25.29   0.663
  sub3                      13.45       0.00       0.00       4.56       8.35       0.42       8.77        0.20    55.75   0.652
  sub4                      13.45       0.00       0.00       1.22      11.71       0.26      11.97        0.25    65.52   0.890
  sub5                      13.45       0.00       0.00       0.68      12.41       0.26      12.67        0.14    44.76   0.942
  sub7                      13.45       0.00       0.00       0.86      12.18       0.35      12.53        0.04    14.26   0.931
  sub8                      13.45       0.00       0.00       0.87      12.17       0.34      12.50        0.08    26.26   0.930
  sub9                      13.45       0.00       0.00       0.88      12.17       0.33      12.50        0.06    19.64   0.929
  sub10                     13.45       0.00       0.00       0.78      12.29       0.29      12.58        0.14    44.00   0.935
  sub11                     13.45       0.00       0.00       0.77      12.30       0.31      12.61        0.15    48.45   0.938
  sub12                     13.45       0.00       0.00       1.25      11.66       0.50      12.16        0.11    38.10   0.904
  sub14                     13.45       0.00       0.00       0.88      12.16       0.33      12.49        0.12    38.67   0.929
  sub15                     13.45       0.00       0.00       3.37       9.35       0.66      10.01        0.17    57.01   0.744
  sub16                     13.45       0.00       0.00       3.56       8.97       0.88       9.85        0.10    37.63   0.732
  sub17                     13.45       0.00       0.00       3.47       9.10       0.84       9.94        0.09    30.67   0.739
  sub22                     13.45       0.00       0.00       4.98       7.63       0.81       8.43        0.53   184.54   0.627
  sub23                     13.45       0.00       0.00       4.17       8.43       0.81       9.24        0.44   154.22   0.687
  sub60                     13.45       0.00       0.00       1.53       9.85       0.09       9.93        3.01   438.14   0.738
  sub61                     13.45       0.00       0.00       2.16       9.95       0.12      10.07        3.11   536.45   0.749
  sub62                     13.45       0.00       0.00       0.98      10.84       0.10      10.94        3.36   552.35   0.813
  sub63                     13.45       0.00       0.00       3.77       8.69       0.14       8.83        2.67   492.63   0.656
  sub64                     13.45       0.00       0.00       1.93       9.45       0.09       9.54        2.90   416.72   0.709
  sub65                     13.45       0.00       0.00       1.67       9.61       0.08       9.70        2.98   423.09   0.721
  sub66                     13.45       0.00       0.00       3.81       8.10       0.09       8.18        2.51   380.66   0.608
  sub67                     13.45       0.00       0.00       0.95      11.38       0.13      11.51        3.55   679.52   0.856
  sub68                     13.45       0.00       0.00       1.75      10.45       0.13      10.59        3.26   586.26   0.787
  sub69                     13.45       0.00       0.00       1.83      10.79       0.19      10.98        2.57   544.72   0.816
  sub70                     13.45      11.20       0.00       7.51      14.65       0.88      15.52        3.55   494.81   0.630
  sub71                     13.45       0.00       0.00       0.99      10.58       0.09      10.67        2.52   389.24   0.793
  sub72                     13.45       0.00       0.00       0.89       8.56       0.05       8.61        1.75   189.18   0.640
  1                         13.45      15.11       0.00       1.37      16.56       4.63      21.19        4.98   484.42   0.742
  2                         13.45       0.00       0.00       3.02       3.21       1.96       5.17        2.07   340.45   0.384
  
  
  ****************************
  Subcatchment Washoff Summary
  ****************************
  
  ------------------------------------------------------------------------------------------
                                 COD            SS            TN            TP         NH4-N
  Subcatchment                    kg            kg            kg            kg            kg
  ------------------------------------------------------------------------------------------
  sub0                         2.670         5.197         0.046         0.004         0.022
  sub1                        11.241        22.423         0.210         0.015         0.101
  sub2                         6.894        13.384         0.145         0.010         0.067
  sub3                        16.924        32.573         0.350         0.024         0.161
  sub4                        25.772        51.904         0.510         0.031         0.245
  sub5                        25.778        50.682         0.460         0.035         0.223
  sub7                         5.751        11.638         0.108         0.007         0.052
  sub8                         8.581        17.755         0.171         0.010         0.082
  sub9                         7.353        15.005         0.142         0.009         0.068
  sub10                       21.202        42.223         0.389         0.028         0.188
  sub11                       20.657        41.614         0.386         0.026         0.187
  sub12                       17.724        35.094         0.321         0.024         0.155
  sub14                       15.732        31.800         0.298         0.020         0.144
  sub15                       20.231        39.321         0.389         0.028         0.182
  sub16                       13.129        25.518         0.249         0.019         0.117
  sub17                       12.049        23.208         0.222         0.017         0.105
  sub22                       62.582       119.432         1.186         0.090         0.554
  sub23                       36.683        72.439         0.776         0.051         0.357
  sub60                      243.520       456.962         4.842         0.298         2.321
  sub61                      302.151       564.434         5.627         0.386         2.710
  sub62                      313.722       596.076         6.119         0.388         2.938
  sub63                      223.275       410.850         4.468         0.314         2.075
  sub64                      305.877       553.773         5.626         0.410         2.687
  sub65                      313.037       569.066         5.795         0.415         2.772
  sub66                      176.068       321.340         3.608         0.236         1.687
  sub67                      466.222       877.505         8.365         0.616         4.045
  sub68                      332.037       626.413         6.347         0.429         3.034
  sub69                      298.258       568.561         5.590         0.393         2.674
  sub70                      502.897       962.303        10.037         0.699         4.710
  sub71                      206.745       396.330         4.242         0.246         2.030
  sub72                      164.385       293.107         3.069         0.210         1.476
  1                          349.075       671.606         7.102         0.495         3.297
  2                           42.749        75.577         1.214         0.073         0.518
  ------------------------------------------------------------------------------------------
  System                    4570.974      8595.115        88.408         6.057        41.983
  
  
  ******************
  Node Depth Summary
  ******************
  
  ---------------------------------------------------------------------------------
                                 Average  Maximum  Maximum  Time of Max    Reported
                                   Depth    Depth      HGL   Occurrence   Max Depth
  Node                 Type       Meters   Meters   Meters  days hr:min      Meters
  ---------------------------------------------------------------------------------
  WS02001211           JUNCTION     0.77     0.85     5.69     0  03:07        0.85
  WS02001212           JUNCTION     0.48     0.58     5.64     0  03:06        0.58
  WS02001213           JUNCTION     0.73     0.85     5.62     0  03:06        0.85
  WS02003069           JUNCTION     0.54     0.72     5.30     0  03:05        0.72
  WS02003072           JUNCTION     0.60     0.76     5.13     0  03:06        0.76
  WS02003073           JUNCTION     0.36     0.48     4.54     0  03:06        0.48
  WS02003060           JUNCTION     0.47     0.63     5.57     0  03:05        0.63
  WS02003066           JUNCTION     0.26     0.39     5.94     0  03:04        0.39
  WS02003059           JUNCTION     0.78     0.91     5.60     0  03:05        0.91
  WS02003067           JUNCTION     0.62     0.82     6.14     0  03:04        0.82
  WS02004401           JUNCTION     0.76     1.23     7.23     0  03:02        1.23
  WS02004402           JUNCTION     0.79     1.22     7.18     0  03:01        1.22
  WS02004403           JUNCTION     0.81     1.20     7.13     0  03:01        1.19
  WS02004404           JUNCTION     0.88     1.24     7.09     0  03:01        1.24
  WS02004406           JUNCTION     0.88     1.16     6.99     0  03:01        1.16
  WS02004409           JUNCTION     0.58     0.96     6.73     0  03:03        0.96
  WS02004410           JUNCTION     0.59     0.95     6.67     0  03:03        0.95
  WS02004411           JUNCTION     0.60     0.93     6.61     0  03:03        0.93
  WS02004412           JUNCTION     0.61     0.90     6.54     0  03:04        0.90
  WS02004413           JUNCTION     0.76     1.02     6.49     0  03:04        1.02
  WS02004405           JUNCTION     0.87     1.21     7.06     0  03:01        1.21
  WS02006109           JUNCTION     0.87     1.65     8.27     0  03:02        1.64
  WS02006110           JUNCTION     0.84     1.44     8.03     0  03:02        1.44
  WS02006111           JUNCTION     0.27     0.88     7.59     0  03:02        0.88
  WS02006112           JUNCTION     0.95     1.55     7.44     0  03:02        1.55
  WS02006113           JUNCTION     0.40     0.92     7.81     0  03:02        0.92
  WS02006115           JUNCTION     0.66     1.21     7.35     0  03:02        1.21
  WS02006116           JUNCTION     0.74     1.26     7.30     0  03:02        1.26
  WS02006230           JUNCTION     0.90     1.87     8.62     0  03:02        1.87
  WS02006231           JUNCTION     0.63     1.52     8.64     0  03:02        1.51
  WS02006232           JUNCTION     0.78     1.62     8.66     0  03:02        1.61
  WS02006234           JUNCTION     0.73     1.52     8.68     0  03:02        1.52
  WS02006235           JUNCTION     0.78     1.53     8.69     0  03:01        1.53
  WS02006238           JUNCTION     0.80     1.55     8.69     0  03:01        1.54
  WS02006240           JUNCTION     0.71     1.40     8.69     0  03:02        1.40
  WS02006242           JUNCTION     0.77     1.43     8.69     0  03:01        1.42
  WS02006243           JUNCTION     0.65     1.27     8.69     0  03:01        1.27
  WS02006245           JUNCTION     0.63     1.21     8.69     0  03:01        1.20
  WS02006247           JUNCTION     0.64     1.19     8.69     0  03:01        1.19
  WS02006248           JUNCTION     0.58     1.10     8.69     0  02:58        1.10
  WS02006249           JUNCTION     0.59     1.09     8.69     0  02:55        1.09
  WS02006239           JUNCTION     0.77     1.49     8.69     0  03:01        1.48
  WS02006251           JUNCTION     0.57     1.24     8.91     0  05:09        1.16
  WS02006252           JUNCTION     0.36     0.79     9.03     0  05:09        0.71
  WS02006253           JUNCTION     0.60     1.29     8.93     0  05:09        1.18
  WS02006256           JUNCTION     1.81     2.35     9.28     0  00:00        2.35
  WS02004138           JUNCTION     0.19     0.20     7.45     0  00:00        0.19
  WS02004139           JUNCTION     0.72     0.79     5.70     0  03:07        0.79
  WS02004407           JUNCTION     0.26     0.40     6.71     0  03:03        0.40
  WS02006228           JUNCTION     0.89     1.82     8.47     0  03:02        1.82
  WS02006229           JUNCTION     0.87     1.90     8.59     0  03:02        1.89
  WS02006280           JUNCTION     0.07     0.30     8.57     0  03:05        0.30
  WS02006284           JUNCTION     0.37     0.65     9.04     0  03:02        0.64
  WS02006287           JUNCTION     0.10     0.39     9.34     0  03:02        0.39
  WSF200               JUNCTION     0.26     0.44     5.67     0  03:04        0.44
  HS02004901           JUNCTION     0.13     0.38    10.20     0  03:01        0.37
  HS02004881           JUNCTION     0.01     0.05     9.08     0  03:01        0.05
  HS02004876           JUNCTION     0.04     0.16     9.19     0  03:01        0.16
  HS02004870           JUNCTION     0.02     0.09     9.38     0  03:01        0.09
  HS02004862           JUNCTION     0.02     0.11     9.49     0  03:01        0.11
  HS02004856           JUNCTION     0.08     0.15     9.58     0  03:01        0.15
  HS02004852           JUNCTION     0.01     0.07     9.59     0  03:02        0.07
  HS02004848           JUNCTION     0.01     0.07     9.67     0  03:01        0.07
  HS02004842           JUNCTION     0.34     0.40     9.67     0  03:01        0.40
  HS02004837           JUNCTION     0.03     0.09     9.67     0  03:01        0.09
  HS02004830           JUNCTION     0.04     0.10     9.57     0  03:02        0.10
  HS02004824           JUNCTION     0.02     0.13     9.53     0  03:02        0.13
  HS02004817           JUNCTION     0.44     0.69     9.54     0  03:02        0.69
  HS02004807           JUNCTION     0.13     0.36     9.53     0  03:02        0.36
  HS02004802           JUNCTION     0.16     0.39     9.52     0  03:02        0.39
  HS02004799           JUNCTION     0.12     0.46     9.68     0  03:01        0.46
  HS02004792           JUNCTION     0.03     0.22     9.74     0  03:01        0.21
  HS02004788           JUNCTION     0.03     0.16    10.05     0  03:02        0.16
  HS02004785           JUNCTION     0.05     0.25    10.15     0  03:02        0.25
  HS02004777           JUNCTION     0.15     0.39    10.19     0  03:01        0.39
  HS02004770           JUNCTION     0.12     0.37    10.20     0  03:01        0.36
  HS02004480           JUNCTION     0.08     0.38     9.62     0  03:01        0.38
  HS02004479           JUNCTION     0.12     0.42     9.62     0  03:01        0.42
  HS02004478           JUNCTION     0.06     0.28     9.50     0  03:01        0.28
  YS02001745           JUNCTION     0.74     0.95     8.47     0  03:01        0.95
  YS02001748           JUNCTION     1.14     2.27     9.35     0  02:32        1.38
  YS02001751           JUNCTION     1.33     2.19     9.07     0  02:32        1.56
  YS02001754           JUNCTION     1.58     2.13     8.74     0  02:32        1.83
  YS02001762           JUNCTION     1.78     2.06     8.46     0  02:32        2.04
  YS02001765           JUNCTION     1.73     2.02     8.47     0  02:32        1.98
  YS02001767           JUNCTION     1.70     1.95     8.44     0  03:00        1.94
  YS02001770           JUNCTION     1.69     1.94     8.43     0  02:32        1.93
  YS02001774           JUNCTION     1.76     2.00     8.42     0  02:32        1.99
  YS02001779           JUNCTION     1.50     1.68     8.37     0  02:32        1.68
  YS02001882           JUNCTION     0.56     1.63     8.35     0  02:59        1.63
  YS02001884           JUNCTION     0.66     1.74     8.35     0  03:00        1.72
  YS02001759           JUNCTION     1.82     2.11     8.47     0  02:32        2.07
  YS02001887           JUNCTION     0.74     1.81     8.35     0  03:01        1.81
  YS02001890           JUNCTION     0.77     1.81     8.32     0  02:46        1.81
  YS02001898           JUNCTION     0.53     1.56     8.30     0  02:56        1.56
  YS02001901           JUNCTION     0.65     1.68     8.29     0  02:54        1.67
  YS02001904           JUNCTION     0.63     1.64     8.27     0  03:01        1.63
  YS02001907           JUNCTION     0.96     1.96     8.25     0  02:45        1.96
  YS02001910           JUNCTION     0.75     1.79     8.29     0  02:47        1.78
  YS02001915           JUNCTION     0.55     1.61     8.33     0  02:47        1.58
  YS02001918           JUNCTION     0.29     1.31     8.37     0  02:47        1.29
  YS02001619           JUNCTION     1.29     1.58     8.51     0  02:30        1.48
  YS02001629           JUNCTION     1.64     1.85     8.40     0  02:33        1.84
  YS02001641           JUNCTION     1.74     1.94     8.38     0  02:40        1.93
  YS02001644           JUNCTION     1.74     1.92     8.35     0  02:39        1.92
  YS02001652           JUNCTION     1.59     2.07     8.67     0  03:53        1.94
  YS02001655           JUNCTION     1.35     2.04     8.89     0  03:56        1.80
  YS02001920           JUNCTION     0.39     1.39     8.40     0  02:47        1.36
  YS02001923           JUNCTION     0.23     1.16     8.42     0  02:47        1.13
  YS02001926           JUNCTION     0.29     0.99     8.43     0  02:47        0.97
  YS02001929           JUNCTION     0.17     0.74     8.43     0  02:47        0.69
  YS02001658           JUNCTION     1.08     1.97     9.11     0  03:56        1.59
  YS02001661           JUNCTION     0.85     2.26     9.66     0  03:53        1.51
  YS02001664           JUNCTION     0.38     0.58     8.50     0  02:43        0.57
  YS02001622           JUNCTION     1.31     1.53     8.44     0  02:30        1.50
  YS02001633           JUNCTION     1.74     1.95     8.41     0  02:39        1.94
  YS02001649           JUNCTION     1.79     2.05     8.44     0  02:42        2.05
  YS02001757           JUNCTION     1.91     2.20     8.46     0  02:32        2.17
  YS02001895           JUNCTION     0.53     1.57     8.31     0  02:59        1.56
  YS02001625           JUNCTION     1.60     1.78     8.38     0  02:32        1.78
  YS02163301           JUNCTION     1.67     1.88     8.40     0  02:39        1.88
  YS02163601           JUNCTION     1.79     2.00     8.39     0  02:39        1.98
  YS02164001           JUNCTION     1.72     1.93     8.38     0  02:39        1.91
  YS02001647           JUNCTION     1.58     1.80     8.41     0  02:45        1.79
  YSB1154              JUNCTION     0.26     0.57     9.62     0  03:01        0.57
  YSB6556              JUNCTION     0.15     0.45     9.62     0  03:02        0.45
  YSB1174              JUNCTION     0.21     0.52     9.62     0  03:01        0.51
  YSB1171              JUNCTION     0.41     0.72     9.62     0  03:01        0.72
  YS02006553           JUNCTION     0.96     1.97     8.25     0  02:58        1.97
  YS02006561           JUNCTION     0.32     1.09     7.75     0  02:45        1.07
  YS02006556           JUNCTION     0.93     1.93     8.25     0  03:00        1.93
  YS02006558           JUNCTION     0.97     1.98     8.25     0  03:00        1.97
  YS02001783           JUNCTION     0.54     1.49     7.63     0  02:45        1.46
  YS02001784           JUNCTION     0.55     1.48     7.55     0  02:39        1.41
  YS02001786           JUNCTION     0.49     1.60     7.63     0  02:39        1.25
  YS02001788           JUNCTION     0.42     1.63     7.60     0  02:39        1.12
  YS02001790           JUNCTION     0.53     1.96     7.60     0  02:38        1.28
  YS02001791           JUNCTION     0.48     2.53     8.00     0  04:45        1.27
  YS02001793           JUNCTION     0.65     3.60     8.43     0  04:43        1.79
  WSC                  OUTFALL      0.36     0.48     1.15     0  03:07        0.48
  JK-storage           STORAGE      2.68     5.80     6.60     0  02:38        5.80
  CC-storage           STORAGE      1.17     1.40     8.40     0  03:08        1.40
  XR-storage           STORAGE      6.82     7.72     5.72     0  02:55        7.72
  
  
  *******************
  Node Inflow Summary
  *******************
  
  -------------------------------------------------------------------------------------------------
                                  Maximum  Maximum                  Lateral       Total        Flow
                                  Lateral    Total  Time of Max      Inflow      Inflow     Balance
                                   Inflow   Inflow   Occurrence      Volume      Volume       Error
  Node                 Type           LPS      LPS  days hr:min    10^6 ltr    10^6 ltr     Percent
  -------------------------------------------------------------------------------------------------
  WS02001211           JUNCTION      7.35   390.29     0  03:16       0.207        9.97       0.421
  WS02001212           JUNCTION      0.00   393.23     0  03:16           0        9.93       0.227
  WS02001213           JUNCTION      0.00   395.75     0  03:16           0         9.9       0.338
  WS02003069           JUNCTION      0.32  1332.43     0  03:05     0.00902        20.7       0.206
  WS02003072           JUNCTION      0.00  1332.09     0  03:06           0        20.6       0.238
  WS02003073           JUNCTION      1.82  1334.00     0  03:06      0.0514        20.6       0.280
  WS02003060           JUNCTION     16.53  1332.40     0  03:05       0.466        20.7       0.194
  WS02003066           JUNCTION      0.00   938.87     0  03:04           0        10.4       0.059
  WS02003059           JUNCTION      0.00   398.68     0  03:15           0        9.87       0.436
  WS02003067           JUNCTION      0.00   938.45     0  03:04           0        10.5       0.112
  WS02004401           JUNCTION      0.00   939.10     0  03:02           0        10.7       0.252
  WS02004402           JUNCTION      0.00   939.16     0  03:03           0        10.7       0.232
  WS02004403           JUNCTION      0.00   939.25     0  03:03           0        10.7       0.205
  WS02004404           JUNCTION      0.16   939.53     0  03:03     0.00457        10.7       0.146
  WS02004406           JUNCTION      0.00   939.83     0  03:03           0        10.6       0.359
  WS02004409           JUNCTION      0.00   939.71     0  03:03           0        10.6       0.227
  WS02004410           JUNCTION      0.00   938.82     0  03:03           0        10.6       0.248
  WS02004411           JUNCTION      0.00   938.39     0  03:03           0        10.5       0.247
  WS02004412           JUNCTION      0.00   938.08     0  03:03           0        10.5       0.255
  WS02004413           JUNCTION      0.00   938.27     0  03:04           0        10.5       0.360
  WS02004405           JUNCTION      0.04   939.72     0  03:03     0.00107        10.7       0.222
  WS02006109           JUNCTION      1.23   914.76     0  03:02      0.0347        10.8       0.213
  WS02006110           JUNCTION      0.00   914.82     0  03:02           0        10.8       0.216
  WS02006111           JUNCTION      0.00   915.24     0  03:02           0        10.8       0.056
  WS02006112           JUNCTION     30.67   938.79     0  03:02      0.0853        10.8       0.293
  WS02006113           JUNCTION      0.00   914.88     0  03:02           0        10.8       0.132
  WS02006115           JUNCTION      0.00   938.86     0  03:02           0        10.8       0.260
  WS02006116           JUNCTION      0.00   939.01     0  03:02           0        10.8       0.245
  WS02006230           JUNCTION     10.28   532.46     0  07:30        0.29         8.4       0.234
  WS02006231           JUNCTION      0.00   522.42     0  07:31           0        8.13       0.171
  WS02006232           JUNCTION      0.00   522.17     0  07:31           0        8.14       0.227
  WS02006234           JUNCTION      0.00   522.42     0  07:31           0        8.16       0.136
  WS02006235           JUNCTION      0.00   523.52     0  07:33           0         8.2       0.146
  WS02006238           JUNCTION      0.00   400.50     0  06:39           0        4.72       0.189
  WS02006240           JUNCTION      0.00   400.57     0  06:39           0        4.72       0.356
  WS02006242           JUNCTION      0.00   400.64     0  06:38           0        4.72       0.394
  WS02006243           JUNCTION      0.00   400.77     0  06:39           0        4.73       0.285
  WS02006245           JUNCTION      0.00   401.01     0  06:35           0        4.74       0.300
  WS02006247           JUNCTION      0.00   400.71     0  06:39           0        4.75       0.236
  WS02006248           JUNCTION      0.00   400.80     0  06:39           0        4.76       0.212
  WS02006249           JUNCTION      0.00   478.04     0  03:10           0        5.24       0.285
  WS02006239           JUNCTION      0.00   400.56     0  06:39           0        4.72       0.256
  WS02006251           JUNCTION      0.08   477.36     0  03:10     0.00217        5.32       0.355
  WS02006252           JUNCTION      0.00   400.00     0  06:20           0         4.8       0.012
  WS02006253           JUNCTION      3.75   143.69     0  03:01      0.0103       0.529       2.786
  WS02006256           JUNCTION      0.00   983.00     0  00:00           0        10.4      -0.001
  WS02004138           JUNCTION      0.00   380.00     0  00:00           0         9.8       0.061
  WS02004139           JUNCTION      0.32   396.51     0  00:00     0.00905        9.81       0.476
  WS02004407           JUNCTION      0.00   939.91     0  03:03           0        10.6       0.101
  WS02006228           JUNCTION      0.00   913.41     0  03:02           0        10.8       0.162
  WS02006229           JUNCTION      0.00   918.66     0  03:01           0        10.8       0.141
  WS02006280           JUNCTION      0.00   680.06     0  03:02           0        2.43       0.012
  WS02006284           JUNCTION      0.10   678.91     0  03:02      0.0027        2.43       0.044
  WS02006287           JUNCTION      0.00   677.56     0  03:02           0        2.43       0.033
  WSF200               JUNCTION      0.00   939.01     0  03:04           0        10.4       0.064
  HS02004901           JUNCTION     37.63    37.63     0  03:01       0.103       0.103       1.743
  HS02004881           JUNCTION     14.26   140.52     0  03:01      0.0422       0.463       0.115
  HS02004876           JUNCTION     25.66   127.62     0  03:01      0.0814       0.422       0.129
  HS02004870           JUNCTION     26.26   103.58     0  03:01      0.0799        0.34       0.036
  HS02004862           JUNCTION     25.49    79.36     0  03:01      0.0888       0.261       0.068
  HS02004856           JUNCTION     19.64    55.41     0  03:01      0.0601       0.173       0.841
  HS02004852           JUNCTION      0.00    37.84     0  03:01           0       0.113       0.053
  HS02004848           JUNCTION     55.75    55.75     0  03:01       0.197       0.197       0.030
  HS02004842           JUNCTION      0.00    16.84     0  03:01           0       0.097      15.491
  HS02004837           JUNCTION     50.35    65.70     0  03:01       0.318       0.402       0.205
  HS02004830           JUNCTION      0.15    64.78     0  03:01     0.00423       0.392       0.316
  HS02004824           JUNCTION     65.57   128.45     0  03:01       0.251       0.642       0.086
  HS02004817           JUNCTION      0.60   124.45     0  03:01      0.0169       0.658       2.599
  HS02004807           JUNCTION     48.45   165.80     0  03:01       0.147       0.788       0.555
  HS02004802           JUNCTION      0.00   165.31     0  03:04           0       0.785       0.508
  HS02004799           JUNCTION     38.67   445.95     0  03:01       0.119        1.42       0.191
  HS02004792           JUNCTION    184.82   411.86     0  03:01        0.54         1.3       0.034
  HS02004788           JUNCTION     58.68   233.42     0  03:02       0.219       0.758       0.054
  HS02004785           JUNCTION      0.15   182.17     0  03:01     0.00423        0.54       0.093
  HS02004777           JUNCTION      0.03   184.97     0  03:01    0.000846       0.541       0.972
  HS02004770           JUNCTION    154.22   188.96     0  03:01       0.441       0.542       0.579
  HS02004480           JUNCTION      0.00   517.10     0  03:01           0        1.66       0.068
  HS02004479           JUNCTION      0.00    75.41     0  03:02           0       0.258       0.287
  HS02004478           JUNCTION      0.00   677.01     0  03:02           0        2.43       0.010
  YS02001745           JUNCTION    438.14   438.14     0  03:01        3.01        3.02       0.331
  YS02001748           JUNCTION      0.04   567.20     0  02:32     0.00127        3.01       0.729
  YS02001751           JUNCTION      0.01   442.55     0  03:01     0.00031        2.98       0.786
  YS02001754           JUNCTION      0.26   442.65     0  03:01     0.00733        2.96       0.838
  YS02001762           JUNCTION      0.00   313.13     0  02:43           0        1.99       1.073
  YS02001765           JUNCTION      0.00   314.18     0  02:43           0        1.99       1.244
  YS02001767           JUNCTION      0.54   314.91     0  02:43      0.0151        2.02       1.809
  YS02001770           JUNCTION    552.50   675.13     0  03:02        3.37        3.75       0.849
  YS02001774           JUNCTION      0.00   676.78     0  03:01           0        2.11       1.214
  YS02001779           JUNCTION      0.01   677.81     0  03:01    0.000141        2.08       0.749
  YS02001882           JUNCTION      0.00    50.04     0  02:40           0      0.0238      10.451
  YS02001884           JUNCTION      0.00    88.38     0  02:40           0      0.0609      11.289
  YS02001759           JUNCTION    536.49   620.04     0  02:43        3.11        4.68       0.490
  YS02001887           JUNCTION    679.97   679.97     0  03:01        3.56         3.6       0.240
  YS02001890           JUNCTION      0.00   680.69     0  03:01           0        3.55       0.268
  YS02001898           JUNCTION      0.00   517.78     0  02:57           0        3.45       0.086
  YS02001901           JUNCTION      0.00   517.72     0  02:57           0        3.45       0.205
  YS02001904           JUNCTION      0.00   517.94     0  02:57           0        3.44       0.190
  YS02001907           JUNCTION      0.00  1102.61     0  03:01           0        7.77       0.317
  YS02001910           JUNCTION      0.00   586.67     0  03:01           0        4.34       0.274
  YS02001915           JUNCTION    389.26   586.08     0  03:01        2.52        4.38       0.143
  YS02001918           JUNCTION      0.00   270.03     0  02:48           0        1.88       0.087
  YS02001619           JUNCTION    380.66   380.66     0  03:01        2.51        2.51       0.479
  YS02001629           JUNCTION      0.00   196.84     0  02:39           0        1.59       1.831
  YS02001641           JUNCTION      0.00   415.25     0  02:39           0        4.46       0.475
  YS02001644           JUNCTION    416.76  1525.75     0  03:01         2.9        10.5       0.249
  YS02001652           JUNCTION      0.00   501.41     0  03:01           0        2.63       0.905
  YS02001655           JUNCTION      0.15   501.21     0  03:01     0.00434        2.65       0.927
  YS02001920           JUNCTION      2.87   270.04     0  02:48      0.0809        1.86       0.158
  YS02001923           JUNCTION      0.04   263.11     0  02:48     0.00106        1.77       0.050
  YS02001926           JUNCTION      0.05   212.42     0  03:01     0.00147        1.76       0.189
  YS02001929           JUNCTION    189.18   189.18     0  03:01        1.75        1.75       0.036
  YS02001658           JUNCTION      0.00   610.69     0  02:29           0        2.69       0.769
  YS02001661           JUNCTION      0.00   677.15     0  02:42           0        3.14      -0.148
  YS02001664           JUNCTION    492.63   492.63     0  03:01        2.67        3.13       0.166
  YS02001622           JUNCTION      0.00   381.33     0  03:01           0         2.5       1.284
  YS02001633           JUNCTION    423.29   423.29     0  03:01        2.99        4.52       0.716
  YS02001649           JUNCTION      0.00   870.24     0  02:39           0        5.87       0.638
  YS02001757           JUNCTION      0.00  1676.52     0  02:40           0        9.85       0.942
  YS02001895           JUNCTION      0.00   517.85     0  02:57           0        3.45       0.150
  YS02001625           JUNCTION      0.00   408.24     0  03:01           0        2.48       1.580
  YS02163301           JUNCTION      0.00   203.18     0  02:32           0        1.57       1.555
  YS02163601           JUNCTION      0.11   414.13     0  02:39      0.0031        4.48       0.677
  YS02164001           JUNCTION      0.00   414.68     0  02:39           0        4.46       0.457
  YS02001647           JUNCTION      0.00   717.93     0  03:01           0        4.99       0.568
  YSB1154              JUNCTION     44.76    44.76     0  03:01       0.144       0.144       1.019
  YSB6556              JUNCTION      0.00    43.25     0  03:01           0       0.145       0.869
  YSB1174              JUNCTION     38.10    38.10     0  03:01       0.106       0.107       1.223
  YSB1171              JUNCTION      0.00    76.91     0  03:01           0       0.257       2.527
  YS02006553           JUNCTION      0.00   708.71     0  03:46           0        6.69       0.233
  YS02006561           JUNCTION      0.00   983.98     0  02:59           0        9.92       0.006
  YS02006556           JUNCTION      0.00   708.75     0  03:46           0         6.7       0.173
  YS02006558           JUNCTION    587.14   985.49     0  02:59        3.28        9.95       0.055
  YS02001783           JUNCTION      0.00   983.95     0  02:59           0        9.92       0.024
  YS02001784           JUNCTION      1.06   984.98     0  02:59      0.0299        9.94       0.037
  YS02001786           JUNCTION      0.06   984.70     0  03:00     0.00159        9.94       0.036
  YS02001788           JUNCTION      0.07   984.86     0  03:00       0.002        9.94       0.021
  YS02001790           JUNCTION      0.15   985.12     0  03:00     0.00437        9.94       0.020
  YS02001791           JUNCTION      0.00   985.16     0  03:00           0        9.94       0.013
  YS02001793           JUNCTION      0.00   985.60     0  03:00           0        9.94      -0.009
  WSC                  OUTFALL       0.00  1334.21     0  03:07           0        20.6       0.000
  JK-storage           STORAGE       0.00   985.52     0  03:00           0        10.1      -9.795
  CC-storage           STORAGE       0.00  1677.49     0  02:41           0        8.29       0.748
  XR-storage           STORAGE    1024.87  1024.87     0  03:01        12.7        13.3      -0.004
  
  
  **********************
  Node Surcharge Summary
  **********************
  
  Surcharging occurs when water rises above the top of the highest conduit.
  ---------------------------------------------------------------------
                                               Max. Height   Min. Depth
                                   Hours       Above Crown    Below Rim
  Node                 Type      Surcharged         Meters       Meters
  ---------------------------------------------------------------------
  WS02004401           JUNCTION        0.50          0.230        1.430
  WS02004402           JUNCTION        0.54          0.222        1.518
  WS02004403           JUNCTION        0.55          0.196        1.834
  WS02004404           JUNCTION        0.91          0.242        2.538
  WS02004406           JUNCTION        0.77          0.163        2.287
  WS02004413           JUNCTION        0.18          0.023        2.177
  WS02004405           JUNCTION        0.86          0.215        2.585
  WS02006109           JUNCTION        4.41          0.829        0.991
  WS02006110           JUNCTION        2.44          0.533        1.317
  WS02006111           JUNCTION        0.13          0.073        1.797
  WS02006112           JUNCTION        3.04          0.553        1.127
  WS02006113           JUNCTION        0.15          0.121        1.809
  WS02006115           JUNCTION        0.35          0.205        2.045
  WS02006116           JUNCTION        0.38          0.197        2.093
  WS02006230           JUNCTION        1.79          0.793        0.777
  WS02006231           JUNCTION        2.44          0.805        0.725
  WS02006232           JUNCTION        4.38          0.917        0.563
  WS02006234           JUNCTION        3.20          0.800        0.440
  WS02006235           JUNCTION        3.76          0.818        0.472
  WS02006238           JUNCTION        3.91          0.828        0.602
  WS02006240           JUNCTION        3.19          0.687        0.703
  WS02006242           JUNCTION        3.40          0.695        0.125
  WS02006243           JUNCTION        2.89          0.562        0.208
  WS02006245           JUNCTION        2.68          0.499        0.351
  WS02006247           JUNCTION        2.71          0.483        0.277
  WS02006248           JUNCTION        2.32          0.380        0.000
  WS02006249           JUNCTION        2.42          0.390        0.000
  WS02006239           JUNCTION        3.37          0.745        0.545
  WS02006251           JUNCTION        1.28          0.210        0.970
  WS02006252           JUNCTION        2.91          0.393        0.707
  WS02006253           JUNCTION        1.33          0.248        2.232
  WS02006256           JUNCTION        6.67          2.050        0.000
  WS02006228           JUNCTION        4.37          0.993        1.207
  YS02001748           JUNCTION        5.22          1.190        0.000
  YS02001751           JUNCTION        5.38          1.190        0.010
  YS02001754           JUNCTION        5.57          1.078        0.072
  YS02001762           JUNCTION        5.75          1.056        0.094
  YS02001765           JUNCTION        5.72          1.015        0.085
  YS02001767           JUNCTION        5.69          0.948        0.082
  YS02001770           JUNCTION        5.68          0.907        0.013
  YS02001774           JUNCTION        5.74          0.996        0.054
  YS02001779           JUNCTION        5.56          0.680        0.000
  YS02001882           JUNCTION        1.09          0.634        0.196
  YS02001884           JUNCTION        1.11          0.676        0.194
  YS02001759           JUNCTION        5.78          1.109        0.101
  YS02001887           JUNCTION        1.18          0.763        0.187
  YS02001890           JUNCTION        1.20          0.760        0.000
  YS02001898           JUNCTION        1.06          0.533        0.207
  YS02001901           JUNCTION        1.14          0.677        0.193
  YS02001904           JUNCTION        1.13          0.643        0.207
  YS02001907           JUNCTION        1.87          0.950        0.000
  YS02001910           JUNCTION        1.24          0.787        0.313
  YS02001915           JUNCTION        1.08          0.611        0.389
  YS02001918           JUNCTION        0.92          0.308        0.502
  YS02001619           JUNCTION        5.37          0.583        0.027
  YS02001629           JUNCTION        5.38          0.470        0.000
  YS02001641           JUNCTION        5.72          0.939        0.161
  YS02001644           JUNCTION        5.73          0.920        0.000
  YS02001652           JUNCTION        5.61          1.040        0.090
  YS02001655           JUNCTION        5.39          1.038        0.162
  YS02001920           JUNCTION        0.95          0.392        0.748
  YS02001658           JUNCTION        5.25          0.971        0.329
  YS02001661           JUNCTION        0.16          1.188        0.202
  YS02001622           JUNCTION        5.41          0.531        0.089
  YS02001633           JUNCTION        5.71          0.931        0.129
  YS02001649           JUNCTION        5.76          1.050        0.000
  YS02001757           JUNCTION        5.86          1.195        0.015
  YS02001895           JUNCTION        1.07          0.566        0.184
  YS02001625           JUNCTION        5.64          0.780        0.000
  YS02163301           JUNCTION        5.68          0.884        0.146
  YS02163601           JUNCTION        5.75          0.996        0.084
  YS02164001           JUNCTION        5.72          0.926        0.174
  YS02001647           JUNCTION        5.62          0.803        0.097
  YS02006553           JUNCTION        1.97          0.969        0.221
  YS02006561           JUNCTION        0.97          0.293        0.857
  YS02006556           JUNCTION        1.47          0.895        0.455
  YS02006558           JUNCTION        1.43          0.880        0.520
  YS02001783           JUNCTION        1.22          0.685        0.915
  YS02001784           JUNCTION        1.20          0.681        0.809
  YS02001786           JUNCTION        1.14          0.795        0.635
  YS02001788           JUNCTION        1.09          0.828        0.652
  YS02001790           JUNCTION        1.95          1.157        0.000
  YS02001791           JUNCTION        2.03          1.729        0.191
  YS02001793           JUNCTION        2.28          2.600        0.000
  
  
  *********************
  Node Flooding Summary
  *********************
  
  Flooding refers to all water that overflows a node, whether it ponds or not.
  --------------------------------------------------------------------------
                                                             Total   Maximum
                                 Maximum   Time of Max       Flood    Ponded
                        Hours       Rate    Occurrence      Volume     Depth
  Node                 Flooded       LPS   days hr:min    10^6 ltr    Meters
  --------------------------------------------------------------------------
  WS02006248              0.07     15.08      0  03:03       0.002     0.000
  WS02006249              1.23    341.28      0  03:04       0.464     0.000
  WS02006256              4.25    978.40      0  00:00       6.864     0.000
  YS02001748              0.01    171.90      0  02:32       0.000     0.000
  YS02001779              2.77    677.73      0  03:01       2.060     0.000
  YS02001890              0.33    164.61      0  03:01       0.085     0.000
  YS02001907              0.80    706.29      0  03:01       1.063     0.000
  YS02001629              0.01      6.10      0  02:33       0.000     0.000
  YS02001644              3.84   1524.85      0  03:01       8.635     0.000
  YS02001649              0.03     28.25      0  02:45       0.001     0.000
  YS02001625              1.44    408.06      0  03:01       0.854     0.000
  YS02001790              0.01    174.37      0  04:46       0.000     0.000
  YS02001793              0.01    305.62      0  04:43       0.000     0.000
  JK-storage              0.81    752.57      0  02:40       0.811     0.000
  XR-storage              3.52    644.68      0  03:01       2.729     0.000
  
  
  **********************
  Storage Volume Summary
  **********************
  
  --------------------------------------------------------------------------------------------------
                         Average     Avg  Evap Exfil       Maximum     Max    Time of Max    Maximum
                          Volume    Pcnt  Pcnt  Pcnt        Volume    Pcnt     Occurrence    Outflow
  Storage Unit           1000 m3    Full  Loss  Loss       1000 m3    Full    days hr:min        LPS
  --------------------------------------------------------------------------------------------------
  JK-storage               0.135      46     0     0         0.291     100       0  02:38     983.00
  CC-storage               3.253      21     0     0         3.908      25       0  03:08     400.00
  XR-storage               0.818      88     0     0         0.926     100       0  02:55     380.00
  
  
  ***********************
  Outfall Loading Summary
  ***********************
  
  ---------------------------------------------------------------------------------------------------------------------------------
                         Flow       Avg       Max       Total         Total         Total         Total         Total         Total
                         Freq      Flow      Flow      Volume           COD            SS            TN            TP         NH4-N
  Outfall Node           Pcnt       LPS       LPS    10^6 ltr            kg            kg            kg            kg            kg
  ---------------------------------------------------------------------------------------------------------------------------------
  WSC                   99.98    828.52   1334.21      20.592      2455.993      4259.414       149.696        17.456        90.181
  ---------------------------------------------------------------------------------------------------------------------------------
  System                99.98    828.52   1334.21      20.592      2455.993      4259.414       149.696        17.456        90.181
  
  
  ********************
  Link Flow Summary
  ********************
  
  -----------------------------------------------------------------------------
                                 Maximum  Time of Max   Maximum    Max/    Max/
                                  |Flow|   Occurrence   |Veloc|    Full    Full
  Link                 Type          LPS  days hr:min     m/sec    Flow   Depth
  -----------------------------------------------------------------------------
  WS02003066WSF200     CONDUIT    939.01     0  03:04      3.00    0.16    0.32
  WS02006287WS02006284 CONDUIT    678.81     0  03:02      2.38    0.31    0.39
  WS02006284WS02006280 CONDUIT    680.06     0  03:02      2.62    0.28    0.37
  WS02006280WS02006229 CONDUIT    680.12     0  03:02      3.88    0.15    0.50
  WS02006229WS02006228 CONDUIT    913.41     0  03:02      1.82    3.03    1.00
  WS02006256WS02006235 CONDUIT    288.60     0  00:00      4.23    3.05    1.00
  WS02006253WS02006251 CONDUIT    143.92     0  03:01      0.62    0.43    1.00
  WS02006252WS02006251 CONDUIT    401.11     0  06:31      3.19    1.47    1.00
  WS02006251WS02006249 CONDUIT    478.04     0  03:10      1.24    1.38    1.00
  WS02006249WS02006248 CONDUIT    400.80     0  06:39      1.14    2.20    1.00
  WS02006248WS02006247 CONDUIT    400.71     0  06:39      1.11    0.87    1.00
  WS02006247WS02006245 CONDUIT    401.01     0  06:35      1.08    3.18    1.00
  WS02006245WS02006243 CONDUIT    400.77     0  06:39      1.09    1.19    1.00
  WS02006243WS02006242 CONDUIT    400.64     0  06:38      1.04    0.86    1.00
  WS02006242WS02006240 CONDUIT    400.57     0  06:39      1.04    1.59    1.00
  WS02006240WS02006239 CONDUIT    400.56     0  06:39      1.04    1.26    1.00
  WS02006239WS02006238 CONDUIT    400.50     0  06:39      1.04    1.28    1.00
  WS02006238WS02006235 CONDUIT    401.28     0  06:38      1.46    0.90    1.00
  WS02006235WS02006234 CONDUIT    522.42     0  07:31      1.36    5.51    1.00
  WS02006234WS02006232 CONDUIT    522.17     0  07:31      1.39    1.06    1.00
  WS02006232WS02006231 CONDUIT    522.42     0  07:31      1.36    1.09    1.00
  WS02006231WS02006230 CONDUIT    522.18     0  07:30      1.36    7.92    1.00
  WS02006230WS02006229 CONDUIT    532.85     0  07:30      1.38   11.86    1.00
  WS02006228WS02006109 CONDUIT    913.53     0  03:02      1.82    3.99    1.00
  WS02006116WS02004401 CONDUIT    939.10     0  03:02      1.20    1.29    1.00
  WS02006115WS02006116 CONDUIT    939.01     0  03:02      1.20    1.21    1.00
  WS02006113WS02006111 CONDUIT    915.24     0  03:02      2.60    1.10    1.00
  WS02006112WS02006115 CONDUIT    938.86     0  03:02      1.20    0.55    1.00
  WS02006111WS02006112 CONDUIT    915.69     0  03:03      1.82    0.44    1.00
  WS02006110WS02006113 CONDUIT    914.88     0  03:02      1.82    0.83    1.00
  WS02006109WS02006110 CONDUIT    914.82     0  03:02      1.82    1.76    1.00
  WS02004411WS02004412 CONDUIT    938.08     0  03:03      1.24    1.33    0.92
  WS02004401WS02004402 CONDUIT    939.16     0  03:03      1.20    1.13    1.00
  WS02004413WS02003067 CONDUIT    938.45     0  03:04      1.55    0.40    0.72
  WS02004412WS02004413 CONDUIT    938.27     0  03:04      1.22    0.63    0.95
  WS02004410WS02004411 CONDUIT    938.39     0  03:03      1.23    1.28    0.94
  WS02004409WS02004410 CONDUIT    938.82     0  03:03      1.22    1.21    0.95
  WS02004407WS02004409 CONDUIT    939.71     0  03:03      1.67    0.33    0.68
  WS02004406WS02004407 CONDUIT    939.91     0  03:03      1.60    0.42    0.70
  WS02004405WS02004406 CONDUIT    939.83     0  03:03      1.20    1.85    1.00
  WS02004404WS02004405 CONDUIT    939.68     0  03:03      1.20    9.21    1.00
  WS02004403WS02004404 CONDUIT    939.37     0  03:03      1.20    0.68    1.00
  WS02004402WS02004403 CONDUIT    939.25     0  03:03      1.20    1.35    1.00
  WS02004139WS02001211 CONDUIT    382.94     0  03:16      0.90    0.48    0.64
  WS02004138WS02004139 CONDUIT    396.19     0  00:00      3.65    0.08    0.47
  WS02003067WS02003066 CONDUIT    938.87     0  03:04      1.65    0.30    0.50
  WS02001213WS02003059 CONDUIT    398.68     0  03:15      0.88    0.66    0.87
  WS02001212WS02001213 CONDUIT    395.75     0  03:16      1.32    0.61    0.56
  WS02001211WS02001212 CONDUIT    393.23     0  03:16      0.78    0.30    0.71
  WS02003072WS02003073 CONDUIT   1332.18     0  03:06      1.96    2.88    0.58
  WS02003069WS02003072 CONDUIT   1332.09     0  03:06      1.82    0.64    0.62
  WS02003060WS02003069 CONDUIT   1332.11     0  03:05      2.03    0.52    0.56
  WS02003059WS02003060 CONDUIT    402.23     0  03:15      0.95    0.26    0.77
  HS02004901HS02004770 CONDUIT     37.21     0  03:01      0.10    0.14    0.53
  HS02004876HS02004881 CONDUIT    127.62     0  03:01      1.21    1.36    0.15
  HS02004870HS02004876 CONDUIT    103.08     0  03:01      0.82    0.07    0.18
  HS02004842HS02004848 CONDUIT     16.84     0  03:01      0.07    0.01    0.33
  HS02004837HS02004842 CONDUIT     17.90     0  03:03      0.42    0.01    0.35
  HS02004830HS02004837 CONDUIT     64.63     0  03:01      0.67    0.06    0.14
  HS02004824HS02004830 CONDUIT     64.12     0  03:02      0.62    0.08    0.16
  HS02004817HS02004824 CONDUIT    123.85     0  03:01      0.31    0.06    0.58
  HS02004770HS02004777 CONDUIT    184.94     0  03:01      0.49    0.34    0.54
  HS02004799HS02004480 CONDUIT    444.26     0  03:01      1.07    0.56    0.60
  HS02004792HS02004799 CONDUIT    408.36     0  03:01      1.20    0.25    0.49
  HS02004788HS02004792 CONDUIT    232.94     0  03:02      1.28    0.15    0.26
  HS02004785HS02004788 CONDUIT    181.75     0  03:02      0.91    1.37    0.29
  HS02004777HS02004785 CONDUIT    182.02     0  03:01      0.57    0.22    0.45
  HS02004480HS02004478 CONDUIT    517.25     0  03:01      1.55    2.18    0.48
  HS02004479HS02004480 CONDUIT     77.27     0  03:02      0.30    0.07    0.57
  HS02004862HS02004870 CONDUIT     79.02     0  03:01      0.80    0.09    0.14
  HS02004848HS02004852 CONDUIT     37.84     0  03:01      0.53    0.04    0.10
  HS02004856HS02004862 CONDUIT     54.76     0  03:01      0.59    0.05    0.13
  HS02004852HS02004856 CONDUIT     37.75     0  03:02      0.34    0.04    0.16
  HS02004802HS02004478 CONDUIT    170.15     0  03:04      0.54    0.15    0.48
  HS02004478WS02006287 CONDUIT    677.56     0  03:02      2.11    0.19    0.36
  HS02004817HS02004807 CONDUIT    128.10     0  03:04      0.25    0.08    0.75
  HS02004807HS02004802 CONDUIT    165.31     0  03:04      0.46    0.32    0.53
  YS02001759YS02001757 CONDUIT    620.84     0  02:43      0.79    0.44    1.00
  YS02001762YS02001759 CONDUIT    312.71     0  02:43      0.40    0.36    1.00
  YS02001765YS02001762 CONDUIT    313.13     0  02:43      0.40    0.29    1.00
  YS02001770YS02001767 CONDUIT    314.37     0  02:43      0.40    1.25    1.00
  YS02001774YS02001770 CONDUIT    676.78     0  03:01      0.86    0.43    1.00
  YS02001779YS02001774 CONDUIT    677.80     0  03:01      0.86    0.34    1.00
  YS02001649YS02001757 CONDUIT    871.82     0  02:40      1.11    0.53    1.00
  YS02001767YS02001765 CONDUIT    314.18     0  02:43      0.40    0.40    1.00
  YS02006561YS02001783 CONDUIT    983.95     0  02:59      2.15    0.51    1.00
  YS02001783YS02001784 CONDUIT    983.92     0  02:59      1.96    1.36    1.00
  YS02001784YS02001785 CONDUIT    984.64     0  03:00      1.96    2.29    1.00
  YS02001788YS02001790 CONDUIT    984.97     0  03:00      2.44    0.73    1.00
  YS02001790YS02001791 CONDUIT    985.16     0  03:00      2.91    1.07    1.00
  YS02001791YS02001793 CONDUIT    985.60     0  03:00      5.76    0.42    1.00
  YS02001910YS02001907 CONDUIT    586.00     0  03:01      0.75    0.33    1.00
  YS02001786YS02001788 CONDUIT    984.79     0  03:00      2.31    1.90    1.00
  YS02001915YS02001910 CONDUIT    586.67     0  03:01      0.75    0.29    1.00
  YS02001918YS02001915 CONDUIT    270.23     0  02:48      0.44    0.15    1.00
  YS02001923YS02001920 CONDUIT    267.17     0  02:48      0.75    0.12    1.00
  YS02001926YS02001923 CONDUIT    263.07     0  02:48      0.86    0.38    0.94
  YS02001929YS02001926 CONDUIT    212.37     0  03:01      0.92    0.10    0.85
  YS02001920YS02001918 CONDUIT    270.03     0  02:48      0.72    0.26    1.00
  YS02001629YS02163301 CONDUIT    203.18     0  02:32      0.26    0.25    1.00
  YS02001619YS02001622 CONDUIT    381.33     0  03:01      0.59    0.56    1.00
  YS02001622YS02001625 CONDUIT    380.81     0  03:01      0.48    0.20    1.00
  YS02001625YS02001629 CONDUIT    196.84     0  02:39      0.25    0.09    1.00
  YS02163301YS02001633 CONDUIT    205.73     0  02:32      0.26    0.19    1.00
  YS02163601YS02164001 CONDUIT    414.68     0  02:39      0.53    0.37    1.00
  YS02164001YS02001641 CONDUIT    415.25     0  02:39      0.53    0.57    1.00
  YS02001641YS02001644 CONDUIT    414.56     0  02:39      0.53    1.34    1.00
  YS02001647YS02001649 CONDUIT    717.93     0  03:01      0.91    0.38    1.00
  YS02006553YS02006556 CONDUIT    708.75     0  03:46      0.90    0.61    1.00
  YS02006556YS02006558 CONDUIT    708.99     0  03:46      0.90    0.56    1.00
  YSB6556YSB1171       CONDUIT     42.81     0  03:02      0.13    0.04    0.82
  YS02001907YS02006553 CONDUIT    708.71     0  03:46      0.79    0.83    1.00
  YS02006558YS02006561 CONDUIT    983.98     0  02:59      3.48    2.17    1.00
  YS02001633YS02163601 CONDUIT    414.02     0  02:39      0.53    0.43    1.00
  YS02001644YS02001647 CONDUIT    718.95     0  03:01      0.92    0.42    1.00
  YS02001745YS02001748 CONDUIT    567.16     0  02:32      1.46    0.22    0.98
  YS02001748YS02001751 CONDUIT    442.54     0  03:01      1.03    0.22    1.00
  YS02001751YS02001754 CONDUIT    442.39     0  03:01      0.88    0.21    1.00
  YS02001754YS02001757 CONDUIT    442.76     0  03:01      0.56    0.18    1.00
  YS02001882YS02001884 CONDUIT     50.04     0  02:40      0.12    0.06    1.00
  YS02001884YS02001887 CONDUIT     88.38     0  02:40      0.11    0.12    1.00
  YS02001890YS02001895 CONDUIT    517.85     0  02:57      0.66    0.24    1.00
  YS02001895YS02001898 CONDUIT    517.78     0  02:57      0.66    0.90    1.00
  YS02001898YS02001901 CONDUIT    517.72     0  02:57      0.66    0.33    1.00
  YS02001901YS02001904 CONDUIT    517.94     0  02:57      0.66    0.80    1.00
  YS02001904YS02001907 CONDUIT    517.87     0  02:59      0.66    0.18    1.00
  YS02001887YS02001890 CONDUIT    680.69     0  03:01      0.87    1.16    1.00
  YS02001652YS02001649 CONDUIT    501.23     0  03:01      0.64    0.25    1.00
  YS02001655YS02001652 CONDUIT    501.41     0  03:01      0.94    0.24    1.00
  YS02001658YS02001655 CONDUIT    501.06     0  03:01      1.18    0.21    1.00
  YS02001661YS02001658 CONDUIT    610.69     0  02:29      1.52    0.24    1.00
  YS02001664YS02001661 CONDUIT    677.15     0  02:42      1.42    0.21    0.77
  YSB1154YSB6556       CONDUIT     43.25     0  03:01      0.18    0.08    0.73
  YSB1174YSB1171       CONDUIT     36.62     0  03:01      0.11    0.06    0.85
  YSB1171HS02004479    CONDUIT     75.41     0  03:02      0.54    0.05    0.68
  HS02004881HS02006253 CONDUIT    140.46     0  03:01      2.29    0.03    0.54
  YS02001793JiankangQianchi CONDUIT    985.52     0  03:00     16.47    0.08    1.00
  YS02001757CaochengTiaoxuchi CONDUIT   1677.49     0  02:41      2.17    0.74    1.00
  WSF200WS02003060     CONDUIT    939.30     0  03:04      1.93    0.21    0.45
  1                    CONDUIT   1334.21     0  03:07      3.59    0.46    0.48
  CC-Pump-1            PUMP       200.00     0  03:00              1.00
  CC-Pump-2            PUMP       200.00     0  06:20              1.00
  JK-Pump-1            PUMP       300.00     0  00:00              1.00
  JK-Pump-2            PUMP       683.00     0  00:00              1.00
  XR-Pump-1            PUMP        95.00     0  00:00              1.00
  XR-Pump-2            PUMP        95.00     0  00:00              1.00
  XR-Pump-3            PUMP        95.00     0  00:00              1.00
  XR-Pump-4            PUMP        95.00     0  00:00              1.00
  
  
  ***************************
  Flow Classification Summary
  ***************************
  
  -------------------------------------------------------------------------------------
                      Adjusted    ---------- Fraction of Time in Flow Class ---------- 
                       /Actual         Up    Down  Sub   Sup   Up    Down  Norm  Inlet 
  Conduit               Length    Dry  Dry   Dry   Crit  Crit  Crit  Crit  Ltd   Ctrl  
  -------------------------------------------------------------------------------------
  WS02003066WSF200        1.00   0.01  0.05  0.00  0.00  0.94  0.00  0.00  0.38  0.00
  WS02006287WS02006284    1.00   0.03  0.01  0.00  0.64  0.32  0.00  0.00  0.65  0.00
  WS02006284WS02006280    1.00   0.03  0.00  0.00  0.00  0.00  0.00  0.97  0.00  0.00
  WS02006280WS02006229    1.00   0.03  0.00  0.00  0.01  0.02  0.00  0.94  0.01  0.00
  WS02006229WS02006228    1.00   0.00  0.00  0.00  1.00  0.00  0.00  0.00  0.00  0.00
  WS02006256WS02006235    1.00   0.00  0.00  0.00  1.00  0.00  0.00  0.00  0.00  0.00
  WS02006253WS02006251    1.00   0.01  0.01  0.00  0.97  0.00  0.00  0.00  0.00  0.00
  WS02006252WS02006251    1.00   0.17  0.00  0.00  0.14  0.00  0.69  0.00  0.00  0.00
  WS02006251WS02006249    1.00   0.00  0.00  0.00  1.00  0.00  0.00  0.00  0.22  0.00
  WS02006249WS02006248    1.00   0.00  0.01  0.00  0.92  0.00  0.08  0.00  0.00  0.00
  WS02006248WS02006247    1.00   0.01  0.00  0.00  0.98  0.00  0.00  0.01  0.12  0.00
  WS02006247WS02006245    1.00   0.01  0.00  0.00  0.97  0.00  0.00  0.02  0.00  0.00
  WS02006245WS02006243    1.00   0.00  0.00  0.00  0.96  0.00  0.00  0.04  0.01  0.00
  WS02006243WS02006242    1.00   0.00  0.00  0.00  1.00  0.00  0.00  0.00  0.22  0.00
  WS02006242WS02006240    1.00   0.00  0.00  0.00  1.00  0.00  0.00  0.00  0.00  0.00
  WS02006240WS02006239    1.00   0.00  0.00  0.00  0.95  0.00  0.00  0.05  0.01  0.00
  WS02006239WS02006238    1.00   0.00  0.00  0.00  1.00  0.00  0.00  0.00  0.14  0.00
  WS02006238WS02006235    1.00   0.00  0.00  0.00  1.00  0.00  0.00  0.00  0.00  0.00
  WS02006235WS02006234    1.00   0.00  0.00  0.00  0.96  0.00  0.04  0.00  0.00  0.00
  WS02006234WS02006232    1.00   0.00  0.00  0.00  1.00  0.00  0.00  0.00  0.11  0.00
  WS02006232WS02006231    1.00   0.00  0.00  0.00  1.00  0.00  0.00  0.00  0.00  0.00
  WS02006231WS02006230    1.00   0.00  0.00  0.00  0.83  0.00  0.17  0.00  0.00  0.00
  WS02006230WS02006229    1.00   0.00  0.00  0.00  1.00  0.00  0.00  0.00  0.01  0.00
  WS02006228WS02006109    1.00   0.00  0.00  0.00  1.00  0.00  0.00  0.00  0.00  0.00
  WS02006116WS02004401    1.00   0.01  0.00  0.00  0.99  0.00  0.00  0.00  0.01  0.00
  WS02006115WS02006116    1.00   0.01  0.00  0.00  0.97  0.00  0.00  0.02  0.01  0.00
  WS02006113WS02006111    1.00   0.01  0.00  0.00  0.03  0.96  0.00  0.00  0.13  0.00
  WS02006112WS02006115    1.00   0.01  0.00  0.00  0.99  0.00  0.00  0.00  0.00  0.00
  WS02006111WS02006112    1.00   0.01  0.00  0.00  0.99  0.00  0.00  0.00  0.87  0.00
  WS02006110WS02006113    1.00   0.00  0.00  0.00  0.99  0.00  0.00  0.00  0.00  0.00
  WS02006109WS02006110    1.00   0.00  0.00  0.00  1.00  0.00  0.00  0.00  0.00  0.00
  WS02004411WS02004412    1.00   0.05  0.00  0.00  0.95  0.00  0.00  0.00  0.00  0.00
  WS02004401WS02004402    1.00   0.01  0.00  0.00  0.99  0.00  0.00  0.00  0.01  0.00
  WS02004413WS02003067    1.00   0.05  0.01  0.00  0.00  0.00  0.94  0.00  0.00  0.00
  WS02004412WS02004413    1.00   0.05  0.00  0.00  0.95  0.00  0.00  0.00  0.00  0.00
  WS02004410WS02004411    1.00   0.05  0.00  0.00  0.95  0.00  0.00  0.00  0.00  0.00
  WS02004409WS02004410    1.00   0.05  0.00  0.00  0.95  0.00  0.00  0.00  0.00  0.00
  WS02004407WS02004409    1.00   0.05  0.00  0.00  0.95  0.00  0.00  0.00  0.80  0.00
  WS02004406WS02004407    1.00   0.00  0.05  0.00  0.95  0.00  0.00  0.00  0.00  0.00
  WS02004405WS02004406    1.00   0.00  0.00  0.00  1.00  0.00  0.00  0.00  0.02  0.00
  WS02004404WS02004405    1.00   0.00  0.00  0.00  1.00  0.00  0.00  0.00  0.00  0.00
  WS02004403WS02004404    1.00   0.00  0.01  0.00  0.99  0.00  0.00  0.00  0.02  0.00
  WS02004402WS02004403    1.00   0.01  0.00  0.00  0.99  0.00  0.00  0.00  0.00  0.00
  WS02004139WS02001211    1.00   0.00  0.00  0.00  1.00  0.00  0.00  0.00  0.00  0.00
  WS02004138WS02004139    1.00   0.00  0.00  0.00  1.00  0.00  0.00  0.00  1.00  0.00
  WS02003067WS02003066    1.00   0.06  0.00  0.00  0.94  0.00  0.00  0.00  0.00  0.00
  WS02001213WS02003059    1.00   0.00  0.00  0.00  1.00  0.00  0.00  0.00  0.00  0.00
  WS02001212WS02001213    1.00   0.00  0.00  0.00  0.92  0.00  0.08  0.00  0.00  0.00
  WS02001211WS02001212    1.00   0.00  0.00  0.00  1.00  0.00  0.00  0.00  0.00  0.00
  WS02003072WS02003073    1.00   0.00  0.00  0.00  0.00  0.00  0.00  1.00  0.00  0.00
  WS02003069WS02003072    1.00   0.00  0.00  0.00  1.00  0.00  0.00  0.00  0.10  0.00
  WS02003060WS02003069    1.00   0.00  0.00  0.00  0.99  0.01  0.00  0.00  0.08  0.00
  WS02003059WS02003060    1.00   0.00  0.00  0.00  1.00  0.00  0.00  0.00  0.00  0.00
  HS02004901HS02004770    1.00   0.03  0.00  0.00  0.97  0.00  0.00  0.00  0.00  0.00
  HS02004876HS02004881    1.00   0.01  0.00  0.00  0.92  0.07  0.00  0.00  0.00  0.00
  HS02004870HS02004876    1.00   0.00  0.00  0.00  1.00  0.00  0.00  0.00  0.95  0.00
  HS02004842HS02004848    1.00   0.00  0.03  0.00  0.97  0.00  0.00  0.00  0.54  0.00
  HS02004837HS02004842    1.00   0.00  0.00  0.00  1.00  0.00  0.00  0.00  0.11  0.00
  HS02004830HS02004837    1.00   0.00  0.00  0.00  1.00  0.00  0.00  0.00  0.99  0.00
  HS02004824HS02004830    1.00   0.00  0.00  0.00  1.00  0.00  0.00  0.00  0.01  0.00
  HS02004817HS02004824    1.00   0.00  0.00  0.00  1.00  0.00  0.00  0.00  0.97  0.00
  HS02004770HS02004777    1.00   0.00  0.03  0.00  0.97  0.00  0.00  0.00  0.03  0.00
  HS02004799HS02004480    1.00   0.00  0.01  0.00  0.96  0.00  0.03  0.00  0.00  0.00
  HS02004792HS02004799    1.00   0.00  0.00  0.00  1.00  0.00  0.00  0.00  0.98  0.00
  HS02004788HS02004792    1.00   0.00  0.00  0.00  1.00  0.00  0.00  0.00  0.98  0.00
  HS02004785HS02004788    1.00   0.00  0.00  0.00  1.00  0.00  0.00  0.00  0.00  0.00
  HS02004777HS02004785    1.00   0.00  0.00  0.00  1.00  0.00  0.00  0.00  0.12  0.00
  HS02004480HS02004478    1.00   0.03  0.00  0.00  0.73  0.00  0.00  0.24  0.00  0.00
  HS02004479HS02004480    1.00   0.01  0.00  0.00  0.99  0.00  0.00  0.00  0.12  0.00
  HS02004862HS02004870    1.00   0.00  0.00  0.00  1.00  0.00  0.00  0.00  0.04  0.00
  HS02004848HS02004852    1.00   0.03  0.00  0.00  0.97  0.00  0.00  0.00  0.64  0.00
  HS02004856HS02004862    1.00   0.00  0.04  0.00  0.96  0.00  0.00  0.00  0.83  0.00
  HS02004852HS02004856    1.00   0.03  0.00  0.00  0.97  0.00  0.00  0.00  0.81  0.00
  HS02004802HS02004478    1.00   0.03  0.00  0.00  0.97  0.00  0.00  0.00  0.02  0.00
  HS02004478WS02006287    1.00   0.04  0.00  0.00  0.79  0.17  0.00  0.00  0.65  0.00
  HS02004817HS02004807    1.00   0.00  0.03  0.00  0.97  0.00  0.00  0.00  0.01  0.00
  HS02004807HS02004802    1.00   0.03  0.00  0.00  0.96  0.00  0.00  0.00  0.00  0.00
  YS02001759YS02001757    1.00   0.00  0.00  0.00  1.00  0.00  0.00  0.00  0.16  0.00
  YS02001762YS02001759    1.00   0.00  0.00  0.00  1.00  0.00  0.00  0.00  0.03  0.00
  YS02001765YS02001762    1.00   0.00  0.00  0.00  1.00  0.00  0.00  0.00  0.14  0.00
  YS02001770YS02001767    1.00   0.00  0.00  0.00  1.00  0.00  0.00  0.00  0.00  0.00
  YS02001774YS02001770    1.00   0.00  0.03  0.00  0.97  0.00  0.00  0.00  0.03  0.00
  YS02001779YS02001774    1.00   0.00  0.00  0.00  1.00  0.00  0.00  0.00  0.19  0.00
  YS02001649YS02001757    1.00   0.00  0.00  0.00  1.00  0.00  0.00  0.00  0.16  0.00
  YS02001767YS02001765    1.00   0.00  0.00  0.00  1.00  0.00  0.00  0.00  0.00  0.00
  YS02006561YS02001783    1.00   0.05  0.00  0.00  0.34  0.62  0.00  0.00  0.46  0.00
  YS02001783YS02001784    1.00   0.00  0.05  0.00  0.95  0.00  0.00  0.00  0.01  0.00
  YS02001784YS02001785    1.00   0.00  0.00  0.00  1.00  0.00  0.00  0.00  0.18  0.00
  YS02001788YS02001790    1.00   0.00  0.00  0.00  0.37  0.63  0.00  0.00  0.35  0.00
  YS02001790YS02001791    1.00   0.00  0.00  0.00  0.34  0.66  0.00  0.00  0.46  0.00
  YS02001791YS02001793    1.00   0.00  0.00  0.00  0.37  0.63  0.00  0.00  0.02  0.00
  YS02001910YS02001907    1.00   0.00  0.00  0.00  0.99  0.00  0.00  0.01  0.12  0.00
  YS02001786YS02001788    1.00   0.00  0.00  0.00  0.36  0.64  0.00  0.00  0.00  0.00
  YS02001915YS02001910    1.00   0.00  0.00  0.00  0.99  0.01  0.00  0.00  0.16  0.00
  YS02001918YS02001915    1.00   0.00  0.00  0.00  0.99  0.00  0.00  0.00  0.54  0.00
  YS02001923YS02001920    1.00   0.00  0.00  0.00  1.00  0.00  0.00  0.00  0.82  0.00
  YS02001926YS02001923    1.00   0.00  0.02  0.00  0.14  0.00  0.84  0.00  0.00  0.00
  YS02001929YS02001926    1.00   0.00  0.03  0.00  0.97  0.00  0.00  0.00  0.74  0.00
  YS02001920YS02001918    1.00   0.00  0.00  0.00  1.00  0.00  0.00  0.00  0.00  0.00
  YS02001629YS02163301    1.00   0.04  0.00  0.00  0.96  0.00  0.00  0.00  0.00  0.00
  YS02001619YS02001622    1.00   0.03  0.00  0.00  0.97  0.00  0.00  0.00  0.00  0.00
  YS02001622YS02001625    1.00   0.03  0.00  0.00  0.97  0.00  0.00  0.00  0.05  0.00
  YS02001625YS02001629    1.00   0.03  0.02  0.00  0.94  0.00  0.02  0.00  0.00  0.00
  YS02163301YS02001633    1.00   0.00  0.04  0.00  0.96  0.00  0.00  0.00  0.00  0.00
  YS02163601YS02164001    1.00   0.00  0.02  0.00  0.98  0.00  0.00  0.00  0.00  0.00
  YS02164001YS02001641    1.00   0.00  0.02  0.00  0.98  0.00  0.00  0.00  0.06  0.00
  YS02001641YS02001644    1.00   0.00  0.00  0.00  1.00  0.00  0.00  0.00  0.00  0.00
  YS02001647YS02001649    1.00   0.00  0.04  0.00  0.96  0.00  0.00  0.00  0.01  0.00
  YS02006553YS02006556    1.00   0.00  0.00  0.00  1.00  0.00  0.00  0.00  0.03  0.00
  YS02006556YS02006558    1.00   0.00  0.00  0.00  1.00  0.00  0.00  0.00  0.00  0.00
  YSB6556YSB1171          1.00   0.01  0.02  0.00  0.97  0.00  0.00  0.00  0.00  0.00
  YS02001907YS02006553    1.00   0.00  0.01  0.00  0.99  0.00  0.00  0.00  0.00  0.00
  YS02006558YS02006561    1.00   0.05  0.00  0.00  0.14  0.81  0.00  0.00  0.46  0.00
  YS02001633YS02163601    1.00   0.00  0.00  0.00  1.00  0.00  0.00  0.00  0.15  0.00
  YS02001644YS02001647    1.00   0.00  0.04  0.00  0.96  0.00  0.00  0.00  0.00  0.00
  YS02001745YS02001748    1.00   0.00  0.00  0.00  0.91  0.00  0.00  0.08  0.04  0.00
  YS02001748YS02001751    1.00   0.00  0.00  0.00  0.97  0.03  0.00  0.00  0.15  0.00
  YS02001751YS02001754    1.00   0.00  0.00  0.00  0.95  0.00  0.00  0.05  0.02  0.00
  YS02001754YS02001757    1.00   0.00  0.00  0.00  1.00  0.00  0.00  0.00  0.18  0.00
  YS02001882YS02001884    1.00   0.04  0.00  0.00  0.96  0.00  0.00  0.00  0.00  0.00
  YS02001884YS02001887    1.00   0.02  0.01  0.00  0.97  0.00  0.00  0.00  0.00  0.00
  YS02001890YS02001895    1.00   0.00  0.04  0.00  0.96  0.00  0.00  0.00  0.00  0.00
  YS02001895YS02001898    1.00   0.04  0.00  0.00  0.95  0.00  0.01  0.00  0.00  0.00
  YS02001898YS02001901    1.00   0.04  0.00  0.00  0.96  0.00  0.00  0.00  0.01  0.00
  YS02001901YS02001904    1.00   0.04  0.00  0.00  0.96  0.00  0.00  0.00  0.00  0.00
  YS02001904YS02001907    1.00   0.00  0.04  0.00  0.96  0.00  0.00  0.00  0.00  0.00
  YS02001887YS02001890    1.00   0.00  0.00  0.00  0.99  0.00  0.01  0.00  0.00  0.00
  YS02001652YS02001649    1.00   0.00  0.00  0.00  1.00  0.00  0.00  0.00  0.17  0.00
  YS02001655YS02001652    1.00   0.00  0.00  0.00  0.95  0.00  0.00  0.05  0.02  0.00
  YS02001658YS02001655    1.00   0.00  0.03  0.00  0.94  0.03  0.00  0.00  0.10  0.00
  YS02001661YS02001658    1.00   0.03  0.00  0.00  0.91  0.05  0.00  0.00  0.11  0.00
  YS02001664YS02001661    1.00   0.03  0.00  0.00  0.93  0.04  0.00  0.00  0.20  0.00
  YSB1154YSB6556          1.00   0.03  0.00  0.00  0.97  0.00  0.00  0.00  0.02  0.00
  YSB1174YSB1171          1.00   0.01  0.01  0.00  0.98  0.00  0.00  0.00  0.00  0.00
  YSB1171HS02004479       1.00   0.01  0.00  0.00  0.99  0.00  0.00  0.00  0.10  0.00
  HS02004881HS02006253    1.00   0.01  0.00  0.00  0.79  0.01  0.00  0.18  0.61  0.00
  YS02001793JiankangQianchi    1.00   0.00  0.00  0.00  0.65  0.35  0.00  0.00  0.41  0.00
  YS02001757CaochengTiaoxuchi    1.00   0.00  0.06  0.00  0.94  0.00  0.00  0.00  0.00  0.00
  WSF200WS02003060        1.00   0.00  0.01  0.00  0.97  0.02  0.00  0.00  0.25  0.00
  1                       1.00   0.00  0.00  0.00  0.00  1.00  0.00  0.00  0.49  0.00
  
  
  *************************
  Conduit Surcharge Summary
  *************************
  
  ----------------------------------------------------------------------------
                                                           Hours        Hours 
                         --------- Hours Full --------   Above Full   Capacity
  Conduit                Both Ends  Upstream  Dnstream   Normal Flow   Limited
  ----------------------------------------------------------------------------
  WS02006229WS02006228        4.37      4.46      4.37      5.40         4.37
  WS02006256WS02006235        5.97      5.98      6.66      4.63         0.01
  WS02006253WS02006251        2.30      2.30      2.39      0.01         0.01
  WS02006252WS02006251        1.90      1.90      2.91      2.37         0.01
  WS02006251WS02006249        2.31      2.32      2.42      1.49         1.22
  WS02006249WS02006248        2.32      2.32      2.42      4.25         0.01
  WS02006248WS02006247        2.40      2.40      2.71      0.01         0.01
  WS02006247WS02006245        2.68      2.79      2.68      4.52         2.54
  WS02006245WS02006243        2.75      2.76      2.89      0.51         0.40
  WS02006243WS02006242        2.95      2.95      3.40      0.01         0.01
  WS02006242WS02006240        3.19      3.19      3.67      2.62         0.01
  WS02006240WS02006239        3.21      3.23      3.37      1.26         0.89
  WS02006239WS02006238        3.63      3.67      3.91      1.34         1.01
  WS02006238WS02006235        3.87      3.87      4.12      0.01         0.02
  WS02006235WS02006234        3.20      3.20      3.76      5.98         0.01
  WS02006234WS02006232        3.59      3.59      4.38      1.03         1.05
  WS02006232WS02006231        2.44      2.44      4.38      1.38         0.01
  WS02006231WS02006230        1.79      1.79      2.61      5.96         0.01
[...]
  YS02001770YS02001767        5.69      5.69      5.69      0.20         0.75
  YS02001774YS02001770        5.68      5.68      5.74      0.01         0.01
  YS02001779YS02001774        5.56      5.56      5.74      0.01         0.01
  YS02001649YS02001757        5.76      5.76      5.86      0.01         0.01
  YS02001767YS02001765        5.69      5.69      5.72      0.01         0.01
  YS02006561YS02001783        0.97      0.97      1.22      0.01         0.01
  YS02001783YS02001784        1.19      1.22      1.20      1.55         1.19
  YS02001784YS02001785        1.14      1.20      1.14      2.50         1.14
  YS02001788YS02001790        1.09      1.09      1.95      0.01         0.01
  YS02001790YS02001791        1.95      1.95      2.03      1.08         1.06
  YS02001791YS02001793        2.03      2.03      2.36      0.01         0.01
  YS02001910YS02001907        1.24      1.24      1.86      0.01         0.01
  YS02001786YS02001788        1.09      1.14      1.09      2.09         1.09
  YS02001915YS02001910        1.08      1.08      1.24      0.01         0.01
  YS02001918YS02001915        0.92      0.92      1.08      0.01         0.01
  YS02001923YS02001920        0.76      0.76      0.95      0.01         0.01
  YS02001920YS02001918        0.92      0.92      0.95      0.01         0.01
  YS02001629YS02163301        5.67      5.67      5.68      0.01         0.01
  YS02001619YS02001622        5.37      5.37      5.41      0.01         0.01
  YS02001622YS02001625        5.41      5.41      5.64      0.01         0.01
  YS02001625YS02001629        5.38      5.38      5.64      0.01         0.01
  YS02163301YS02001633        5.68      5.68      5.72      0.01         0.01
  YS02163601YS02164001        5.72      5.72      5.75      0.01         0.01
  YS02164001YS02001641        5.72      5.72      5.72      0.01         0.03
  YS02001641YS02001644        5.72      5.72      5.73      1.72         1.92
  YS02001647YS02001649        5.62      5.62      5.76      0.01         0.01
  YS02006553YS02006556        1.47      1.47      1.97      0.01         0.01
  YS02006556YS02006558        1.65      1.65      2.07      0.01         0.01
  YSB6556YSB1171              0.01      0.01      0.07      0.01         0.01
  YS02001907YS02006553        2.53      2.53      2.75      0.01         0.01
  YS02006558YS02006561        1.09      1.43      1.09      2.36         1.09
  YS02001633YS02163601        5.71      5.71      5.75      0.01         0.01
  YS02001644YS02001647        5.62      5.62      5.73      0.01         0.01
  YS02001745YS02001748        0.01      0.01      5.22      0.01         0.01
  YS02001748YS02001751        5.27      5.27      5.38      0.01         0.01
  YS02001751YS02001754        5.38      5.38      5.57      0.01         0.01
  YS02001754YS02001757        5.61      5.61      5.86      0.01         0.01
  YS02001882YS02001884        1.09      1.09      1.11      0.01         0.01
  YS02001884YS02001887        1.16      1.16      1.18      0.01         0.01
  YS02001890YS02001895        1.07      1.07      1.26      0.01         0.01
  YS02001895YS02001898        1.06      1.06      1.07      0.01         0.01
  YS02001898YS02001901        1.08      1.08      1.14      0.01         0.01
  YS02001901YS02001904        1.13      1.13      1.14      0.01         0.01
  YS02001904YS02001907        1.13      1.13      2.01      0.01         0.01
  YS02001887YS02001890        1.20      1.20      1.22      0.16         0.01
  YS02001652YS02001649        5.63      5.63      5.76      0.01         0.01
  YS02001655YS02001652        5.39      5.39      5.61      0.01         0.01
  YS02001658YS02001655        5.25      5.25      5.39      0.01         0.01
  YS02001661YS02001658        0.15      0.15      5.25      0.01         0.01
  YS02001664YS02001661        0.01      0.01      1.36      0.01         0.01
  HS02004881HS02006253        0.01      0.01      1.33      0.01         0.01
  YS02001793JiankangQianchi        2.28      2.28      4.03      0.01         0.01
  YS02001757CaochengTiaoxuchi        5.11      5.11      5.86      0.01         0.01
  
  
  ***************
  Pumping Summary
  ***************
  
  ---------------------------------------------------------------------------------------------------------
                                                  Min       Avg       Max     Total     Power    % Time Off
                        Percent   Number of      Flow      Flow      Flow    Volume     Usage    Pump Curve
  Pump                 Utilized   Start-Ups       LPS       LPS       LPS  10^6 ltr     Kw-hr    Low   High
  ---------------------------------------------------------------------------------------------------------
  CC-Pump-1               63.83           1      0.00    185.13    200.00     3.300      3.46    0.0    0.0
  CC-Pump-2               44.68           6      0.00     96.33    200.00     1.500      1.99    0.0    0.0
  JK-Pump-1               65.96           4      0.00    227.54    300.00     4.095     63.63    0.0    0.0
  JK-Pump-2               55.32           5      0.00    415.39    683.00     6.281     84.61    0.0   96.5
  XR-Pump-1               95.75           3      0.00     93.36     95.00     2.451     22.29    0.0    0.0
  XR-Pump-2               95.75           3      0.00     93.36     95.00     2.451     22.29    0.0    0.0
  XR-Pump-3               95.75           3      0.00     93.36     95.00     2.451     22.29    0.0    0.0
  XR-Pump-4               95.75           3      0.00     93.36     95.00     2.451     22.29    0.0    0.0
  
  
  ***************************
  Link Pollutant Load Summary
  ***************************
  
  ------------------------------------------------------------------------------------------
                                 COD            SS            TN            TP         NH4-N
  Link                            kg            kg            kg            kg            kg
  ------------------------------------------------------------------------------------------
  WS02003066WSF200           948.577      1767.699        24.417         2.108        12.799
  WS02006287WS02006284       319.513       608.194        10.315         1.015         5.679
  WS02006284WS02006280       320.004       609.004        10.361         1.021         5.708
  WS02006280WS02006229       319.947       608.890        10.359         1.020         5.706
  WS02006229WS02006228       950.025      1770.031        23.911         2.031        12.456
  WS02006256WS02006235       226.752       416.477         5.128         0.406         2.611
  WS02006253WS02006251        61.831       121.466         1.366         0.103         0.678
  WS02006252WS02006251       408.582       747.917         8.452         0.601         4.143
  WS02006251WS02006249       460.908       852.193         9.632         0.691         4.732
  WS02006249WS02006248       415.217       765.829         8.687         0.623         4.269
  WS02006248WS02006247       414.390       764.341         8.671         0.622         4.262
  WS02006247WS02006245       413.562       762.854         8.653         0.621         4.253
  WS02006245WS02006243       412.608       761.203         8.629         0.619         4.241
  WS02006243WS02006242       411.953       760.075         8.618         0.618         4.235
  WS02006242WS02006240       410.945       758.323         8.595         0.617         4.224
  WS02006240WS02006239       410.547       757.657         8.590         0.617         4.222
  WS02006239WS02006238       410.689       757.781         8.615         0.620         4.239
  WS02006238WS02006235       410.496       757.258         8.623         0.622         4.245
  WS02006235WS02006234       633.898      1167.823        13.646         1.017         6.798
  WS02006234WS02006232       633.353      1166.842        13.639         1.017         6.796
  WS02006232WS02006231       632.713      1165.702        13.625         1.016         6.788
  WS02006231WS02006230       632.008      1164.423        13.612         1.016         6.782
  WS02006230WS02006229       630.920      1162.590        13.578         1.012         6.764
  WS02006228WS02006109       949.267      1768.683        23.895         2.029        12.449
  WS02006116WS02004401       963.058      1793.616        24.754         2.134        12.970
  WS02006115WS02006116       964.344      1795.886        24.786         2.136        12.986
  WS02006113WS02006111       955.098      1777.576        24.636         2.125        12.919
  WS02006112WS02006115       965.739      1798.309        24.832         2.141        13.011
  WS02006111WS02006112       954.730      1776.943        24.630         2.125        12.916
  WS02006110WS02006113       955.785      1778.769        24.659         2.127        12.931
  WS02006109WS02006110       956.942      1780.795        24.699         2.131        12.954
  WS02004411WS02004412       952.887      1775.325        24.559         2.122        12.878
  WS02004401WS02004402       961.716      1791.265        24.712         2.130        12.946
  WS02004413WS02003067       949.492      1769.380        24.438         2.110        12.810
  WS02004412WS02004413       951.411      1772.707        24.519         2.118        12.856
  WS02004410WS02004411       954.189      1777.654        24.593         2.125        12.895
  WS02004409WS02004410       955.524      1780.025        24.631         2.128        12.916
  WS02004407WS02004409       956.670      1782.080        24.658         2.130        12.929
  WS02004406WS02004407       957.067      1782.824        24.661         2.130        12.930
  WS02004405WS02004406       958.926      1786.072        24.739         2.138        12.975
  WS02004404WS02004405       959.851      1787.794        24.731         2.136        12.966
  WS02004403WS02004404       959.438      1787.250        24.645         2.124        12.910
  WS02004402WS02004403       960.531      1789.170        24.680         2.127        12.930
  WS02004139WS02001211      1369.815      2274.817       111.125        13.564        68.496
  WS02004138WS02004139      1376.373      2285.762       111.634        13.625        68.808
  WS02003067WS02003066       948.878      1768.241        24.427         2.109        12.805
  WS02001213WS02003059      1402.305      2325.800       114.511        13.991        70.624
  WS02001212WS02001213      1412.230      2342.219       115.321        14.090        71.124
  WS02001211WS02001212      1413.947      2345.047       115.463        14.108        71.212
  WS02003072WS02003073      2449.942      4250.519       148.911        17.355        89.682
  WS02003069WS02003072      2455.213      4259.263       149.300        17.402        89.921
  WS02003060WS02003069      2458.000      4264.124       149.436        17.416        90.000
  WS02003059WS02003060      1398.744      2319.795       114.250        13.960        70.465
  HS02004901HS02004770        13.093        25.472         0.248         0.019         0.116
  HS02004876HS02004881        45.519        90.357         0.999         0.073         0.491
  HS02004870HS02004876        34.384        68.110         0.798         0.060         0.395
  HS02004842HS02004848         6.457        12.343         0.134         0.009         0.062
  HS02004837HS02004842        11.055        19.634         0.603         0.068         0.356
  HS02004830HS02004837        70.297       122.726         4.643         0.552         2.827
  HS02004824HS02004830        71.069       123.983         4.715         0.561         2.871
  HS02004817HS02004824        97.165       176.412         5.254         0.596         3.135
  HS02004770HS02004777        49.662        97.713         1.021         0.069         0.472
  HS02004799HS02004480       162.334       310.861         4.263         0.379         2.210
  HS02004792HS02004799       147.280       280.138         4.028         0.367         2.105
  HS02004788HS02004792        82.820       157.695         2.666         0.255         1.440
  HS02004785HS02004788        51.124       100.056         1.172         0.089         0.567
  HS02004777HS02004785        50.448        98.948         1.112         0.081         0.530
  HS02004480HS02004478       204.834       395.220         4.972         0.429         2.543
  HS02004479HS02004480        46.123        90.108         1.036         0.091         0.538
  HS02004862HS02004870        25.801        50.343         0.628         0.050         0.314
  HS02004848HS02004852        10.252        19.885         0.210         0.014         0.097
  HS02004856HS02004862        17.525        34.752         0.350         0.023         0.164
  HS02004852HS02004856        10.256        19.890         0.210         0.014         0.097
  HS02004802HS02004478       115.346       214.063         5.398         0.592         3.169
  HS02004478WS02006287       319.723       608.557        10.332         1.017         5.689
  HS02004817HS02004807        95.862       174.322         5.130         0.581         3.057
  HS02004807HS02004802       115.602       214.463         5.430         0.596         3.190
  YS02001759YS02001757       374.956       689.286         7.474         0.519         3.650
  YS02001762YS02001759       169.362       310.894         3.603         0.253         1.783
  YS02001765YS02001762       169.799       312.252         3.630         0.256         1.799
  YS02001770YS02001767       169.959       314.151         3.446         0.228         1.675
  YS02001774YS02001770       240.616       470.814         4.610         0.306         2.227
  YS02001779YS02001774       239.509       468.558         4.693         0.320         2.287
  YS02001649YS02001757       316.415       569.205         6.343         0.440         3.045
  YS02001767YS02001765       170.660       314.333         3.660         0.258         1.815
  YS02006561YS02001783      1018.809      1888.199        21.367         1.595        10.634
  YS02001783YS02001784      1018.695      1888.024        21.363         1.595        10.632
  YS02001784YS02001785      1026.029      1899.783        22.076         1.684        11.078
  YS02001788YS02001790      1026.625      1900.758        22.148         1.693        11.123
  YS02001790YS02001791      1027.625      1902.394        22.247         1.706        11.186
  YS02001791YS02001793      1027.524      1902.220        22.242         1.705        11.183
  YS02001910YS02001907       391.097       721.415         9.381         0.717         4.806
  YS02001786YS02001788      1026.228      1900.118        22.104         1.688        11.095
  YS02001915YS02001910       391.165       721.530         9.333         0.710         4.774
  YS02001918YS02001915       190.624       336.924         5.218         0.472         2.805
  YS02001923YS02001920       167.437       298.370         3.221         0.227         1.566
  YS02001926YS02001923       165.195       294.483         3.119         0.216         1.507
  YS02001929YS02001926       164.200       292.762         3.065         0.210         1.475
  YS02001920YS02001918       188.005       331.574         5.140         0.466         2.763
  YS02001629YS02163301        96.235       170.174         2.031         0.131         0.947
  YS02001619YS02001622       175.890       321.164         3.602         0.236         1.684
  YS02001622YS02001625       174.702       319.274         3.573         0.234         1.671
  YS02001625YS02001629        97.304       171.921         2.055         0.133         0.958
  YS02163301YS02001633        96.609       171.069         2.034         0.132         0.950
  YS02163601YS02164001       405.830       733.343         7.901         0.562         3.785
  YS02164001YS02001641       405.296       732.435         7.881         0.560         3.773
  YS02001641YS02001644       405.362       732.466         7.876         0.560         3.771
  YS02001647YS02001649       409.810       751.461         8.087         0.565         3.856
  YS02006553YS02006556       684.924      1258.683        14.742         1.129         7.421
  YS02006556YS02006558       684.842      1258.520        14.712         1.125         7.402
  YSB6556YSB1171              26.521        51.967         0.537         0.045         0.272
  YS02001907YS02006553       685.046      1258.933        14.750         1.130         7.427
  YS02006558YS02006561      1018.786      1888.146        21.366         1.595        10.633
  YS02001633YS02163601       406.550       734.464         7.882         0.558         3.769
  YS02001644YS02001647       415.260       761.480         8.178         0.571         3.899
  YS02001745YS02001748       249.152       466.066         5.410         0.369         2.677
  YS02001748YS02001751       247.453       462.793         5.467         0.380         2.722
  YS02001751YS02001754       246.488       461.204         5.449         0.380         2.714
  YS02001754YS02001757       247.258       462.356         5.614         0.402         2.822
  YS02001882YS02001884         3.150         5.450         0.064         0.005         0.032
  YS02001884YS02001887         6.786        12.026         0.134         0.010         0.067
  YS02001890YS02001895       450.932       846.399         8.301         0.624         4.049
  YS02001895YS02001898       450.789       846.226         8.295         0.624         4.046
  YS02001898YS02001901       450.599       845.903         8.291         0.623         4.044
  YS02001901YS02001904       450.460       845.719         8.297         0.624         4.048
  YS02001904YS02001907       450.643       845.990         8.349         0.631         4.082
  YS02001887YS02001890       468.227       880.692         8.645         0.653         4.222
  YS02001652YS02001649       195.949       364.933         3.939         0.284         1.848
  YS02001655YS02001652       196.503       365.838         3.953         0.285         1.855
  YS02001658YS02001655       195.976       365.007         3.865         0.273         1.798
  YS02001661YS02001658       199.349       371.045         3.934         0.278         1.830
  YS02001664YS02001661       218.070       401.928         4.355         0.307         2.023
  YSB1154YSB6556              26.084        51.270         0.486         0.038         0.239
  YSB1174YSB1171              18.021        35.562         0.361         0.029         0.180
  YSB1171HS02004479           46.089        90.054         1.039         0.092         0.540
  HS02004881HS02006253        51.791       103.275         1.107         0.080         0.541
  YS02001793JiankangQianchi      1027.992      1902.912        22.277         1.709        11.204
  YS02001757CaochengTiaoxuchi       655.697      1187.413        13.727         0.971         6.729
  WSF200WS02003060           948.522      1767.525        24.436         2.111        12.812
  1                         2455.993      4259.414       149.696        17.456        90.181
  CC-Pump-1                  282.909       518.332         5.846         0.416         2.866
  CC-Pump-2                  125.709       229.647         2.607         0.185         1.278
  JK-Pump-1                  303.758       563.245         6.680         0.521         3.378
  JK-Pump-2                  551.393      1039.391        11.238         0.833         5.562
  XR-Pump-1                  345.028       572.985        27.986         3.416        17.250
  XR-Pump-2                  345.028       572.985        27.986         3.416        17.250
  XR-Pump-3                  345.028       572.985        27.986         3.416        17.250
  XR-Pump-4                  345.028       572.985        27.986         3.416        17.250
  

  Analysis begun on:  Tue Jul 13 19:00:23 2021
  Analysis ended on:  Tue Jul 13 19:00:26 2021
  Total elapsed time: 00:00:03