
  EPA STORM WATER MANAGEMENT MODEL - VERSION 5.1 (Build 5.3.0.dev0)
  --------------------------------------------------------------

  WARNING 04: minimum elevation drop used for Conduit WS02004404WS02004405
  WARNING 03: negative offset ignored for Link YS02001904YS02001907
  
  *********************************************************
  NOTE: The summary statistics displayed in this report are
  based on results found at every computational time step,  
  not just on results from each reporting time step.
  *********************************************************
  
  ****************
  Analysis Options
  ****************
  Flow Units ............... LPS
  Process Models:
    Rainfall/Runoff ........ YES
    RDII ................... NO
    Snowmelt ............... NO
    Groundwater ............ NO
    Flow Routing ........... YES
    Ponding Allowed ........ NO
    Water Quality .......... YES
  Infiltration Method ...... HORTON
  Flow Routing Method ...... DYNWAVE
  Surcharge Method ......... EXTRAN
  Starting Date ............ 08/28/2015 08:00:00
  Ending Date .............. 08/28/2015 15:50:00
  Antecedent Dry Days ...... 8.0
  Report Time Step ......... 00:01:00
  Wet Time Step ............ 00:01:00
  Dry Time Step ............ 00:01:00
  Routing Time Step ........ 5.00 sec
  Variable Time Step ....... YES
  Maximum Trials ........... 8
  Number of Threads ........ 4
  Head Tolerance ........... 0.001500 m
  
  
  **************************        Volume         Depth
  Runoff Quantity Continuity     hectare-m            mm
  **************************     ---------       -------
  Total Precipitation ......        10.887        23.836
  Evaporation Loss .........         0.000         0.000
  Infiltration Loss ........         1.411         3.089
  Surface Runoff ...........         8.292        18.155
  Final Storage ............         1.186         2.596
  Continuity Error (%) .....        -0.016
  
  
  **************************           COD            SS            TN            TP         NH4-N
  Runoff Quality Continuity             kg            kg            kg            kg            kg
  **************************    ----------    ----------    ----------    ----------    ----------
  Initial Buildup ..........     41378.656     70582.865      1804.177       168.684      1032.807
  Surface Buildup ..........        41.425        91.431         2.568         0.227         1.442
  Wet Deposition ...........         0.000         0.000         0.000         0.000         0.000
  Sweeping Removal .........         0.000         0.000         0.000         0.000         0.000
  Infiltration Loss ........       164.554       320.127         3.263         0.236         1.574
  BMP Removal ..............         0.000         0.000         0.000         0.000         0.000
  Surface Runoff ...........      9366.500     18283.806       183.722        12.955        88.133
  Remaining Buildup ........     31885.964     52064.522      1619.692       155.715       944.511
  Continuity Error (%) .....         0.007         0.008         0.004         0.003         0.003
  
  
  **************************        Volume        Volume
  Flow Routing Continuity        hectare-m      10^6 ltr
  **************************     ---------     ---------
  Dry Weather Inflow .......         0.616         6.165
  Wet Weather Inflow .......         8.290        82.901
  Groundwater Inflow .......         0.000         0.000
  RDII Inflow ..............         0.000         0.000
  External Inflow ..........         0.102         1.024
  External Outflow .........         2.350        23.503
  Flooding Loss ............         6.177        61.773
  Evaporation Loss .........         0.000         0.000
  Exfiltration Loss ........         0.000         0.000
  Initial Stored Volume ....         0.076         0.761
  Final Stored Volume ......         0.671         6.712
  Continuity Error (%) .....        -1.252
  
  
  **************************           COD            SS            TN            TP         NH4-N
  Quality Routing Continuity            kg            kg            kg            kg            kg
  **************************    ----------    ----------    ----------    ----------    ----------
  Dry Weather Inflow .......      1541.201      2465.922       147.955        18.494        92.472
  Wet Weather Inflow .......      9365.286     18281.688       183.695        12.953        88.119
  Groundwater Inflow .......         0.000         0.000         0.000         0.000         0.000
  RDII Inflow ..............         0.000         0.000         0.000         0.000         0.000
  External Inflow ..........       183.418       293.469        17.608         2.201        11.005
  External Outflow .........      2912.216      5354.945       136.213        14.970        79.522
  Flooding Loss ............      7463.204     14433.241       185.049        15.848        96.241
  Exfiltration Loss ........         0.000         0.000         0.000         0.000         0.000
  Mass Reacted .............         0.000         0.000         0.000         0.000         0.000
  Initial Stored Mass ......         0.000         0.000         0.000         0.000         0.000
  Final Stored Mass ........       595.199      1055.193        24.456         2.528        13.965
  Continuity Error (%) .....         1.076         0.940         1.014         0.896         0.975
  
  
  *************************
  Highest Continuity Errors
  *************************
  Node YS02001884 (10.66%)
  Node JK-storage (-7.84%)
  Node HS02004842 (7.73%)
  Node HS02004817 (1.58%)
  Node YSB1171 (1.38%)
  
  
  ***************************
  Time-Step Critical Elements
  ***************************
  Link WS02006252WS02006251 (57.86%)
  Link WS02006280WS02006229 (14.89%)
  Link YS02001793JiankangQianchi (8.61%)
  Link WS02006238WS02006235 (3.18%)
  Link WS02004404WS02004405 (3.17%)
  
  
  ********************************
  Highest Flow Instability Indexes
  ********************************
  Link WS02006113WS02006111 (41)
  Link YS02163601YS02164001 (38)
  Link YS02001629YS02163301 (36)
  Link YS02163301YS02001633 (36)
  Link YS02164001YS02001641 (35)
  
  
  *************************
  Routing Time Step Summary
  *************************
  Minimum Time Step           :     0.50 sec
  Average Time Step           :     1.28 sec
  Maximum Time Step           :     5.00 sec
  Percent in Steady State     :    -0.00
  Average Iterations per Step :     4.01
  Percent Not Converging      :    15.19
  
  
  ***************************
  Subcatchment Runoff Summary
  ***************************
  
  ------------------------------------------------------------------------------------------------------------------------------
                            Total      Total      Total      Total     Imperv       Perv      Total       Total     Peak  Runoff
                           Precip      Runon       Evap      Infil     Runoff     Runoff     Runoff      Runoff   Runoff   Coeff
  Subcatchment                 mm         mm         mm         mm         mm         mm         mm    10^6 ltr      LPS
  ------------------------------------------------------------------------------------------------------------------------------
  sub0                      23.84       0.00       0.00       0.77      22.12       0.90      23.02        0.02     5.06   0.966
  sub1                      23.84       0.00       0.00       1.33      21.12       1.29      22.41        0.15    33.98   0.940
  sub2                      23.84       0.00       0.00       5.60      14.93       3.22      18.15        0.17    32.49   0.761
  sub3                      23.84       0.00       0.00       5.94      14.89       2.88      17.77        0.40    70.76   0.745
  sub4                      23.84       0.00       0.00       1.46      20.95       1.16      22.11        0.46    81.55   0.928
  sub5                      23.84       0.00       0.00       0.82      22.07       0.85      22.92        0.26    59.56   0.962
  sub7                      23.84       0.00       0.00       1.03      21.63       1.11      22.74        0.08    19.22   0.954
  sub8                      23.84       0.00       0.00       1.05      21.62       1.10      22.72        0.15    35.26   0.953
  sub9                      23.84       0.00       0.00       1.05      21.62       1.10      22.71        0.11    26.33   0.953
  sub10                     23.84       0.00       0.00       0.94      21.84       0.97      22.81        0.25    58.74   0.957
  sub11                     23.84       0.00       0.00       0.92      21.86       0.99      22.85        0.27    65.28   0.959
  sub12                     23.84       0.00       0.00       1.50      20.69       1.60      22.29        0.19    51.10   0.935
  sub14                     23.84       0.00       0.00       1.05      21.61       1.09      22.71        0.22    51.81   0.953
  sub15                     23.84       0.00       0.00       4.05      16.62       3.10      19.72        0.34    74.01   0.827
  sub16                     23.84       0.00       0.00       4.23      15.93       3.63      19.56        0.20    48.29   0.821
  sub17                     23.84       0.00       0.00       4.13      16.17       3.50      19.67        0.17    39.49   0.825
  sub22                     23.84       0.00       0.00       6.08      13.55       4.17      17.72        1.12   235.47   0.743
  sub23                     23.84       0.00       0.00       5.01      14.97       3.81      18.78        0.90   197.86   0.788
  sub60                     23.84       0.00       0.00       2.13      18.82       0.73      19.55        5.93   667.30   0.820
  sub61                     23.84       0.00       0.00       3.01      18.52       1.04      19.56        6.03   717.95   0.821
  sub62                     23.84       0.00       0.00       1.25      20.31       0.65      20.96        6.44   751.14   0.880
  sub63                     23.84       0.00       0.00       5.57      16.04       1.34      17.38        5.26   638.31   0.729
  sub64                     23.84       0.00       0.00       2.78      18.11       0.79      18.90        5.75   644.78   0.793
  sub65                     23.84       0.00       0.00       2.36      18.46       0.74      19.20        5.90   658.64   0.806
  sub66                     23.84       0.00       0.00       5.92      15.37       0.99      16.36        5.02   574.80   0.686
  sub67                     23.84       0.00       0.00       1.18      20.92       0.73      21.65        6.68   814.16   0.908
  sub68                     23.84       0.00       0.00       2.35      19.35       0.99      20.34        6.25   750.28   0.853
  sub69                     23.84       0.00       0.00       2.36      19.61       1.21      20.83        4.87   655.18   0.874
  sub70                     23.84      21.26       0.00       9.95      28.09       5.22      33.30        7.62   861.91   0.738
  sub71                     23.84       0.00       0.00       1.29      20.01       0.62      20.63        4.87   557.88   0.866
  sub72                     23.84       0.00       0.00       1.26      17.48       0.41      17.89        3.64   352.81   0.750
  1                         23.84      32.43       0.00       1.37      34.56      12.51      47.07       11.06  1042.57   0.837
  2                         23.84       0.00       0.00       3.02       5.81       5.77      11.58        4.63   438.27   0.486
  
  
  ****************************
  Subcatchment Washoff Summary
  ****************************
  
  ------------------------------------------------------------------------------------------
                                 COD            SS            TN            TP         NH4-N
  Subcatchment                    kg            kg            kg            kg            kg
  ------------------------------------------------------------------------------------------
  sub0                         5.447        10.648         0.101         0.009         0.050
  sub1                        23.688        48.042         0.463         0.033         0.225
  sub2                        16.966        34.031         0.358         0.025         0.167
  sub3                        41.902        83.507         0.867         0.061         0.406
  sub4                        55.504       114.752         1.120         0.071         0.542
  sub5                        53.600       106.723         1.016         0.079         0.498
  sub7                        11.854        24.343         0.233         0.016         0.114
  sub8                        17.650        37.231         0.360         0.022         0.174
  sub9                        15.191        31.538         0.304         0.020         0.147
  sub10                       44.044        88.979         0.851         0.062         0.416
  sub11                       42.563        86.978         0.834         0.059         0.406
  sub12                       37.050        74.157         0.712         0.055         0.347
  sub14                       32.601        66.963         0.643         0.044         0.313
  sub15                       47.434        94.407         0.941         0.071         0.448
  sub16                       30.857        61.246         0.608         0.047         0.290
  sub17                       28.315        55.641         0.547         0.044         0.262
  sub22                      161.087       316.749         3.138         0.242         1.488
  sub23                       88.506       179.789         1.886         0.128         0.879
  sub60                      597.605      1177.766        11.858         0.760         5.721
  sub61                      735.660      1436.196        13.939         0.989         6.759
  sub62                      737.985      1463.009        14.530         0.959         7.028
  sub63                      558.710      1076.727        11.142         0.807         5.242
  sub64                      776.597      1477.973        14.527         1.087         6.999
  sub65                      790.465      1509.997        14.865         1.095         7.170
  sub66                      450.962       868.123         9.087         0.615         4.293
  sub67                     1073.899      2091.719        20.029         1.513         9.761
  sub68                      789.681      1552.112        15.327         1.072         7.390
  sub69                      691.072      1362.692        13.304         0.964         6.425
  sub70                     1288.654      2534.730        26.762         1.929        12.763
  sub71                      488.493       980.368         9.974         0.604         4.804
  sub72                      441.504       833.180         8.283         0.587         4.008
  1                         1052.298      2081.048        22.042         1.588        10.427
  2                          118.381       219.864         3.138         0.193         1.360
  ------------------------------------------------------------------------------------------
  System                   11346.226     22181.229       223.788        15.848       107.320
  
  
  ******************
  Node Depth Summary
  ******************
  
  ---------------------------------------------------------------------------------
                                 Average  Maximum  Maximum  Time of Max    Reported
                                   Depth    Depth      HGL   Occurrence   Max Depth
  Node                 Type       Meters   Meters   Meters  days hr:min      Meters
  ---------------------------------------------------------------------------------
  WS02001211           JUNCTION     0.79     0.86     5.69     0  01:43        0.86
  WS02001212           JUNCTION     0.50     0.59     5.65     0  01:42        0.59
  WS02001213           JUNCTION     0.74     0.87     5.63     0  01:41        0.87
  WS02003069           JUNCTION     0.55     0.74     5.32     0  01:43        0.74
  WS02003072           JUNCTION     0.61     0.78     5.15     0  01:41        0.78
  WS02003073           JUNCTION     0.37     0.49     4.55     0  01:42        0.49
  WS02003060           JUNCTION     0.48     0.65     5.58     0  01:40        0.65
  WS02003066           JUNCTION     0.27     0.40     5.95     0  01:35        0.40
  WS02003059           JUNCTION     0.79     0.92     5.61     0  01:43        0.92
  WS02003067           JUNCTION     0.63     0.84     6.16     0  01:35        0.84
  WS02004401           JUNCTION     0.79     1.46     7.46     0  01:32        1.29
  WS02004402           JUNCTION     0.81     1.41     7.37     0  01:32        1.27
  WS02004403           JUNCTION     0.83     1.37     7.30     0  01:32        1.24
  WS02004404           JUNCTION     0.90     1.39     7.24     0  01:32        1.28
  WS02004406           JUNCTION     0.89     1.25     7.08     0  01:32        1.18
  WS02004409           JUNCTION     0.59     1.04     6.81     0  01:35        1.02
  WS02004410           JUNCTION     0.61     1.01     6.73     0  01:35        1.00
  WS02004411           JUNCTION     0.62     0.97     6.65     0  01:35        0.97
  WS02004412           JUNCTION     0.62     0.94     6.58     0  01:35        0.93
  WS02004413           JUNCTION     0.78     1.05     6.52     0  01:35        1.04
  WS02004405           JUNCTION     0.89     1.36     7.21     0  01:32        1.24
  WS02006109           JUNCTION     0.91     1.91     8.53     0  01:33        1.86
  WS02006110           JUNCTION     0.86     1.79     8.37     0  01:32        1.63
  WS02006111           JUNCTION     0.32     1.28     7.98     0  01:32        1.00
  WS02006112           JUNCTION     0.99     1.90     7.78     0  01:32        1.65
  WS02006113           JUNCTION     0.43     1.43     8.32     0  01:32        1.07
  WS02006115           JUNCTION     0.70     1.53     7.67     0  01:32        1.29
  WS02006116           JUNCTION     0.77     1.53     7.57     0  01:32        1.32
  WS02006230           JUNCTION     0.95     2.14     8.88     0  01:33        2.11
  WS02006231           JUNCTION     0.70     1.74     8.87     0  01:33        1.72
  WS02006232           JUNCTION     0.85     1.81     8.85     0  01:34        1.80
  WS02006234           JUNCTION     0.79     1.68     8.84     0  01:34        1.66
  WS02006235           JUNCTION     0.83     1.67     8.84     0  01:33        1.64
  WS02006238           JUNCTION     0.85     1.69     8.83     0  01:34        1.67
  WS02006240           JUNCTION     0.76     1.50     8.80     0  01:34        1.47
  WS02006242           JUNCTION     0.81     1.51     8.77     0  01:34        1.49
  WS02006243           JUNCTION     0.70     1.33     8.75     0  01:33        1.31
  WS02006245           JUNCTION     0.67     1.24     8.73     0  01:34        1.23
  WS02006247           JUNCTION     0.68     1.21     8.71     0  01:34        1.20
  WS02006248           JUNCTION     0.63     1.10     8.69     0  01:32        1.10
  WS02006249           JUNCTION     0.65     1.09     8.69     0  01:32        1.09
  WS02006239           JUNCTION     0.81     1.61     8.82     0  01:34        1.59
  WS02006251           JUNCTION     0.63     1.96     9.63     0  01:32        1.24
  WS02006252           JUNCTION     0.39     1.50     9.74     0  01:32        0.79
  WS02006253           JUNCTION     0.66     1.94     9.58     0  01:32        1.27
  WS02006256           JUNCTION     1.75     2.35     9.28     0  00:00        2.35
  WS02004138           JUNCTION     0.19     0.20     7.45     0  00:00        0.19
  WS02004139           JUNCTION     0.73     0.80     5.71     0  01:42        0.80
  WS02004407           JUNCTION     0.26     0.42     6.74     0  01:35        0.42
  WS02006228           JUNCTION     0.94     2.11     8.76     0  01:33        2.08
  WS02006229           JUNCTION     0.94     2.21     8.90     0  01:33        2.17
  WS02006280           JUNCTION     0.09     0.51     8.78     0  01:33        0.50
  WS02006284           JUNCTION     0.39     0.72     9.12     0  01:34        0.72
  WS02006287           JUNCTION     0.12     0.46     9.42     0  01:34        0.46
  WSF200               JUNCTION     0.27     0.45     5.69     0  01:36        0.45
  HS02004901           JUNCTION     0.15     0.43    10.25     0  01:33        0.43
  HS02004881           JUNCTION     0.01     0.09     9.12     0  01:32        0.06
  HS02004876           JUNCTION     0.05     0.19     9.22     0  01:32        0.19
  HS02004870           JUNCTION     0.02     0.11     9.40     0  01:35        0.11
  HS02004862           JUNCTION     0.03     0.13     9.51     0  01:35        0.13
  HS02004856           JUNCTION     0.09     0.17     9.59     0  01:35        0.17
  HS02004852           JUNCTION     0.02     0.10     9.61     0  01:35        0.10
  HS02004848           JUNCTION     0.02     0.08     9.68     0  01:36        0.08
  HS02004842           JUNCTION     0.34     0.41     9.68     0  01:35        0.41
  HS02004837           JUNCTION     0.04     0.10     9.68     0  01:35        0.10
  HS02004830           JUNCTION     0.05     0.15     9.62     0  01:35        0.15
  HS02004824           JUNCTION     0.03     0.20     9.61     0  01:35        0.20
  HS02004817           JUNCTION     0.46     0.77     9.61     0  01:34        0.77
  HS02004807           JUNCTION     0.15     0.44     9.61     0  01:35        0.44
  HS02004802           JUNCTION     0.19     0.47     9.60     0  01:34        0.47
  HS02004799           JUNCTION     0.15     0.55     9.76     0  01:33        0.55
  HS02004792           JUNCTION     0.05     0.27     9.79     0  01:33        0.27
  HS02004788           JUNCTION     0.04     0.19    10.09     0  01:34        0.19
  HS02004785           JUNCTION     0.06     0.29    10.19     0  01:33        0.29
  HS02004777           JUNCTION     0.17     0.44    10.24     0  01:33        0.44
  HS02004770           JUNCTION     0.14     0.42    10.25     0  01:33        0.42
  HS02004480           JUNCTION     0.11     0.46     9.70     0  01:33        0.46
  HS02004479           JUNCTION     0.14     0.49     9.70     0  01:34        0.49
  HS02004478           JUNCTION     0.08     0.35     9.58     0  01:34        0.35
  YS02001745           JUNCTION     0.82     1.29     8.81     0  01:29        1.05
  YS02001748           JUNCTION     1.22     1.86     8.94     0  01:28        1.46
  YS02001751           JUNCTION     1.40     1.77     8.65     0  01:29        1.64
  YS02001754           JUNCTION     1.66     1.94     8.54     0  01:29        1.88
  YS02001762           JUNCTION     1.85     2.08     8.48     0  02:45        2.08
  YS02001765           JUNCTION     1.81     2.02     8.47     0  02:44        2.02
  YS02001767           JUNCTION     1.77     1.97     8.46     0  02:44        1.97
  YS02001770           JUNCTION     1.76     1.95     8.44     0  02:04        1.95
  YS02001774           JUNCTION     1.83     2.05     8.47     0  01:26        1.99
  YS02001779           JUNCTION     1.56     1.68     8.37     0  01:26        1.68
  YS02001882           JUNCTION     0.75     1.70     8.41     0  01:32        1.64
  YS02001884           JUNCTION     0.84     1.78     8.40     0  01:32        1.74
  YS02001759           JUNCTION     1.89     2.12     8.49     0  02:44        2.11
  YS02001887           JUNCTION     0.92     1.84     8.38     0  01:32        1.82
  YS02001890           JUNCTION     0.94     1.81     8.32     0  01:32        1.81
  YS02001898           JUNCTION     0.71     1.70     8.44     0  01:32        1.56
  YS02001901           JUNCTION     0.83     1.81     8.42     0  01:32        1.67
  YS02001904           JUNCTION     0.80     1.73     8.36     0  01:32        1.63
  YS02001907           JUNCTION     1.13     1.96     8.25     0  01:32        1.96
  YS02001910           JUNCTION     0.93     1.99     8.50     0  01:33        1.88
  YS02001915           JUNCTION     0.73     1.93     8.64     0  01:33        1.77
  YS02001918           JUNCTION     0.47     1.81     8.88     0  01:33        1.59
  YS02001619           JUNCTION     1.35     1.61     8.54     0  01:27        1.53
  YS02001629           JUNCTION     1.70     1.85     8.40     0  01:27        1.85
  YS02001641           JUNCTION     1.80     1.96     8.39     0  01:29        1.93
  YS02001644           JUNCTION     1.80     1.92     8.35     0  01:29        1.92
  YS02001652           JUNCTION     1.67     2.04     8.64     0  01:29        1.91
  YS02001655           JUNCTION     1.43     1.97     8.82     0  01:29        1.72
  YS02001920           JUNCTION     0.58     2.10     9.11     0  01:33        1.67
  YS02001923           JUNCTION     0.40     2.01     9.27     0  01:33        1.44
  YS02001926           JUNCTION     0.42     1.90     9.35     0  01:33        1.27
  YS02001929           JUNCTION     0.27     1.78     9.47     0  01:33        1.05
  YS02001658           JUNCTION     1.16     1.76     8.90     0  01:29        1.47
  YS02001661           JUNCTION     0.92     1.84     9.24     0  01:29        1.24
  YS02001664           JUNCTION     0.42     0.68     8.61     0  01:30        0.68
  YS02001622           JUNCTION     1.37     1.62     8.52     0  01:27        1.54
  YS02001633           JUNCTION     1.80     1.98     8.43     0  01:29        1.94
  YS02001649           JUNCTION     1.86     2.05     8.44     0  01:29        2.05
  YS02001757           JUNCTION     1.99     2.21     8.47     0  02:44        2.21
  YS02001895           JUNCTION     0.71     1.66     8.41     0  01:32        1.56
  YS02001625           JUNCTION     1.65     1.78     8.38     0  01:27        1.78
  YS02163301           JUNCTION     1.73     1.90     8.42     0  01:29        1.89
  YS02163601           JUNCTION     1.84     2.03     8.43     0  01:29        1.98
  YS02164001           JUNCTION     1.78     1.96     8.42     0  01:29        1.91
  YS02001647           JUNCTION     1.64     1.80     8.41     0  04:59        1.79
  YSB1154              JUNCTION     0.28     0.65     9.70     0  01:34        0.65
  YSB6556              JUNCTION     0.18     0.53     9.70     0  01:33        0.53
  YSB1174              JUNCTION     0.24     0.59     9.70     0  01:33        0.59
  YSB1171              JUNCTION     0.44     0.80     9.70     0  01:34        0.80
  YS02006553           JUNCTION     1.13     1.98     8.27     0  01:32        1.97
  YS02006561           JUNCTION     0.45     1.57     8.23     0  01:32        1.09
  YS02006556           JUNCTION     1.10     1.97     8.28     0  01:32        1.94
  YS02006558           JUNCTION     1.14     2.03     8.30     0  01:32        1.98
  YS02001783           JUNCTION     0.70     1.78     7.92     0  01:32        1.48
  YS02001784           JUNCTION     0.71     1.73     7.80     0  01:32        1.42
  YS02001786           JUNCTION     0.63     1.63     7.66     0  01:32        1.26
  YS02001788           JUNCTION     0.56     1.72     7.70     0  01:32        1.13
  YS02001790           JUNCTION     0.70     1.96     7.60     0  05:12        1.29
  YS02001791           JUNCTION     0.68     2.72     8.19     0  05:11        1.28
  YS02001793           JUNCTION     0.98     2.65     7.49     0  05:09        1.80
  WSC                  OUTFALL      0.37     0.49     1.16     0  01:43        0.49
  JK-storage           STORAGE      3.72     5.80     6.60     0  01:32        5.80
  CC-storage           STORAGE      1.23     1.47     8.47     0  02:43        1.47
  XR-storage           STORAGE      7.22     7.72     5.72     0  01:49        7.72
  
  
  *******************
  Node Inflow Summary
  *******************
  
  -------------------------------------------------------------------------------------------------
                                  Maximum  Maximum                  Lateral       Total        Flow
                                  Lateral    Total  Time of Max      Inflow      Inflow     Balance
                                   Inflow   Inflow   Occurrence      Volume      Volume       Error
  Node                 Type           LPS      LPS  days hr:min    10^6 ltr    10^6 ltr     Percent
  -------------------------------------------------------------------------------------------------
  WS02001211           JUNCTION      7.35   390.11     0  03:15       0.207        10.5       0.383
  WS02001212           JUNCTION      0.00   392.84     0  03:15           0        10.4       0.231
  WS02001213           JUNCTION      0.00   395.22     0  03:15           0        10.4       0.273
  WS02003069           JUNCTION      0.32  1379.01     0  01:42     0.00902        23.6       0.150
  WS02003072           JUNCTION      0.00  1379.14     0  01:43           0        23.5       0.177
  WS02003073           JUNCTION      1.82  1380.93     0  01:42      0.0514        23.5       0.201
  WS02003060           JUNCTION     16.53  1379.30     0  01:42       0.466        23.6       0.142
  WS02003066           JUNCTION      0.00  1000.48     0  01:35           0        12.8       0.038
  WS02003059           JUNCTION      0.00   397.99     0  03:14           0        10.4       0.386
  WS02003067           JUNCTION      0.00   996.36     0  01:35           0        12.8       0.078
  WS02004401           JUNCTION      0.00  1015.93     0  01:34           0        13.1       0.181
  WS02004402           JUNCTION      0.00  1016.33     0  01:34           0          13       0.169
  WS02004403           JUNCTION      0.00  1017.24     0  01:34           0          13       0.152
  WS02004404           JUNCTION      0.16  1017.66     0  01:34     0.00457          13       0.113
  WS02004406           JUNCTION      0.00  1018.65     0  01:34           0          13       0.274
  WS02004409           JUNCTION      0.00  1016.30     0  01:34           0        12.9       0.145
  WS02004410           JUNCTION      0.00  1008.67     0  01:34           0        12.9       0.160
  WS02004411           JUNCTION      0.00   993.54     0  01:36           0        12.9       0.162
  WS02004412           JUNCTION      0.00   993.92     0  01:36           0        12.9       0.171
  WS02004413           JUNCTION      0.00   994.80     0  01:35           0        12.8       0.250
  WS02004405           JUNCTION      0.04  1018.70     0  01:34     0.00107          13       0.168
  WS02006109           JUNCTION      1.23   978.10     0  01:34      0.0347          13       0.143
  WS02006110           JUNCTION      0.00   978.00     0  01:34           0          13       0.164
  WS02006111           JUNCTION      0.00   977.70     0  01:34           0          13       0.041
  WS02006112           JUNCTION     39.49  1016.50     0  01:34       0.169        13.1       0.251
  WS02006113           JUNCTION      0.00   977.90     0  01:34           0          13       0.094
  WS02006115           JUNCTION      0.00  1016.07     0  01:34           0        13.1       0.179
  WS02006116           JUNCTION      0.00  1016.08     0  01:34           0        13.1       0.155
  WS02006230           JUNCTION     10.28   532.40     0  06:10        0.29        8.61       0.198
  WS02006231           JUNCTION      0.00   522.28     0  06:18           0        8.31       0.155
  WS02006232           JUNCTION      0.00   522.36     0  05:43           0         8.3       0.220
  WS02006234           JUNCTION      0.00   522.76     0  06:16           0        8.29       0.136
  WS02006235           JUNCTION      0.00   523.09     0  06:25           0        8.44       0.129
  WS02006238           JUNCTION      0.00   419.45     0  06:30           0        4.99       0.194
  WS02006240           JUNCTION      0.00   417.81     0  06:30           0        4.97       0.317
  WS02006242           JUNCTION      0.00   417.64     0  06:30           0        4.96       0.378
  WS02006243           JUNCTION      0.00   417.18     0  06:30           0        4.96       0.329
  WS02006245           JUNCTION      0.00   416.75     0  06:30           0        4.96       0.273
  WS02006247           JUNCTION      0.00   416.66     0  06:30           0        4.96       0.184
  WS02006248           JUNCTION      0.00   416.89     0  06:30           0           5       0.092
  WS02006249           JUNCTION      0.00   501.54     0  02:50           0        6.14       0.205
  WS02006239           JUNCTION      0.00   419.07     0  06:30           0        4.98       0.265
  WS02006251           JUNCTION      0.08   498.71     0  02:50     0.00217        6.18       0.136
  WS02006252           JUNCTION      0.00   400.00     0  03:50           0        5.22       0.010
  WS02006253           JUNCTION      5.06   289.19     0  01:32      0.0186       0.956       0.364
  WS02006256           JUNCTION      0.00   983.00     0  01:40           0        14.4      -0.005
  WS02004138           JUNCTION      0.00   380.00     0  00:00           0        10.3       0.062
  WS02004139           JUNCTION      0.32   395.85     0  00:00     0.00905        10.3       0.439
  WS02004407           JUNCTION      0.00  1019.45     0  01:34           0        12.9       0.067
  WS02006228           JUNCTION      0.00   976.73     0  01:34           0          13       0.126
  WS02006229           JUNCTION      0.00  1057.17     0  01:32           0        13.1       0.117
  WS02006280           JUNCTION      0.00   937.79     0  01:34           0        4.56       0.014
  WS02006284           JUNCTION      0.10   934.65     0  01:35      0.0027        4.56       0.018
  WS02006287           JUNCTION      0.00   934.66     0  01:35           0        4.56       0.019
  WSF200               JUNCTION      0.00  1001.26     0  01:36           0        12.8       0.036
  HS02004901           JUNCTION     48.29    48.29     0  01:31       0.205       0.205       0.867
  HS02004881           JUNCTION     19.22   196.54     0  01:33      0.0766       0.897       0.079
  HS02004876           JUNCTION     33.98   176.89     0  01:34       0.149       0.821       0.068
  HS02004870           JUNCTION     35.26   143.34     0  01:34       0.145       0.672       0.017
  HS02004862           JUNCTION     32.69   109.55     0  01:35       0.175       0.527       0.033
  HS02004856           JUNCTION     26.33    76.92     0  01:35       0.109       0.354       0.408
  HS02004852           JUNCTION      0.00    51.63     0  01:36           0       0.245       0.025
  HS02004848           JUNCTION     70.76    70.76     0  01:38         0.4         0.4       0.013
  HS02004842           JUNCTION      0.00    21.86     0  01:49           0       0.168       8.372
  HS02004837           JUNCTION     65.09    82.02     0  01:35       0.431       0.586       0.138
  HS02004830           JUNCTION      0.15    82.12     0  01:35     0.00423       0.576       0.215
  HS02004824           JUNCTION     81.60   164.05     0  01:38       0.463        1.04       0.052
  HS02004817           JUNCTION      0.60   166.61     0  01:39      0.0169        1.05       1.605
  HS02004807           JUNCTION     65.28   225.46     0  01:36       0.265         1.3       0.342
  HS02004802           JUNCTION      0.00   226.44     0  01:37           0         1.3       0.298
  HS02004799           JUNCTION     51.81   605.47     0  01:33       0.216        2.82       0.117
  HS02004792           JUNCTION    235.75   554.35     0  01:33        1.13        2.61       0.015
  HS02004788           JUNCTION     75.68   319.93     0  01:33       0.386        1.48       0.026
  HS02004785           JUNCTION      0.15   244.47     0  01:33     0.00423         1.1       0.047
  HS02004777           JUNCTION      0.03   244.67     0  01:32    0.000846         1.1       0.479
  HS02004770           JUNCTION    197.86   245.55     0  01:32       0.896         1.1       0.279
  HS02004480           JUNCTION      0.00   713.03     0  01:33           0        3.27       0.024
  HS02004479           JUNCTION      0.00   107.71     0  01:33           0       0.464       0.161
  HS02004478           JUNCTION      0.00   934.58     0  01:35           0        4.56       0.007
  YS02001745           JUNCTION    667.30   667.30     0  03:01        5.93        5.93       0.193
  YS02001748           JUNCTION      0.04   667.49     0  03:01     0.00127        5.92       0.382
  YS02001751           JUNCTION      0.01   667.78     0  03:01     0.00031         5.9       0.409
  YS02001754           JUNCTION      0.26   668.65     0  03:01     0.00733        5.88       0.414
  YS02001762           JUNCTION      0.00   368.48     0  01:32           0         3.2       0.660
  YS02001765           JUNCTION      0.00   368.54     0  01:35           0         3.2       0.760
  YS02001767           JUNCTION      0.54   372.15     0  01:26      0.0151        3.22       1.116
  YS02001770           JUNCTION    751.30  1080.95     0  03:01        6.45        8.21       0.377
  YS02001774           JUNCTION      0.00   852.05     0  02:45           0        6.37       0.389
  YS02001779           JUNCTION      0.01   851.67     0  02:45    0.000141        6.34       0.237
  YS02001882           JUNCTION      0.00    36.84     0  01:29           0      0.0238      11.064
  YS02001884           JUNCTION      0.00    64.45     0  01:29           0      0.0617      11.933
  YS02001759           JUNCTION    717.99   899.35     0  01:41        6.03        7.44       0.304
  YS02001887           JUNCTION    814.61   815.92     0  01:57        6.69        6.72       0.129
  YS02001890           JUNCTION      0.00   815.79     0  01:57           0        6.67       0.144
  YS02001898           JUNCTION      0.00   597.23     0  01:32           0        5.38       0.047
  YS02001901           JUNCTION      0.00   602.11     0  01:32           0        5.38       0.141
  YS02001904           JUNCTION      0.00   604.18     0  01:32           0        5.38       0.116
  YS02001907           JUNCTION      0.00  1427.97     0  03:01           0          14       0.179
  YS02001910           JUNCTION      0.00   911.29     0  03:01           0         8.6       0.144
  YS02001915           JUNCTION    557.90   911.11     0  03:01        4.87        8.65       0.076
  YS02001918           JUNCTION      0.00   436.71     0  01:32           0        3.81       0.061
  YS02001619           JUNCTION    574.80   574.80     0  03:01        5.02        5.02       0.239
  YS02001629           JUNCTION      0.00   283.09     0  01:26           0        2.09       1.369
  YS02001641           JUNCTION      0.00   456.53     0  01:28           0        6.14       0.343
  YS02001644           JUNCTION    644.82  1924.39     0  03:01        5.75        19.1       0.135
  YS02001652           JUNCTION      0.00   639.59     0  03:01           0        5.22       0.437
  YS02001655           JUNCTION      0.15   639.40     0  03:01     0.00434        5.24       0.486
  YS02001920           JUNCTION      2.87   404.30     0  01:33      0.0809        3.79       0.093
  YS02001923           JUNCTION      0.04   403.12     0  01:33     0.00106        3.69       0.049
  YS02001926           JUNCTION      0.05   463.64     0  01:33     0.00147        3.66       0.077
  YS02001929           JUNCTION    352.81   352.81     0  03:01        3.64        3.65       0.004
  YS02001658           JUNCTION      0.00   638.98     0  03:01           0        5.26       0.462
  YS02001661           JUNCTION      0.00   801.19     0  01:41           0        5.58      -0.019
  YS02001664           JUNCTION    638.31   638.31     0  03:01        5.26        5.58       0.103
  YS02001622           JUNCTION      0.00   574.87     0  03:01           0        5.01       0.635
  YS02001633           JUNCTION    658.84   658.84     0  03:01        5.91        7.08       0.452
  YS02001649           JUNCTION      0.00  1366.51     0  03:01           0          11       0.335
  YS02001757           JUNCTION      0.00  2182.79     0  01:41           0        13.7       0.672
  YS02001895           JUNCTION      0.00   593.47     0  01:32           0        5.39       0.117
  YS02001625           JUNCTION      0.00   801.50     0  03:01           0        5.86       0.683
  YS02163301           JUNCTION      0.00   277.02     0  01:26           0        2.09       1.156
  YS02163601           JUNCTION      0.11   459.89     0  01:28      0.0031        6.14       0.489
  YS02164001           JUNCTION      0.00   458.40     0  01:28           0        6.13       0.328
  YS02001647           JUNCTION      0.00   846.70     0  02:45           0        8.54       0.332
  YSB1154              JUNCTION     59.56    59.56     0  01:33        0.26        0.26       0.556
  YSB6556              JUNCTION      0.00    59.44     0  01:33           0       0.261       0.488
  YSB1174              JUNCTION     51.10    51.10     0  01:30       0.195       0.195       0.658
  YSB1171              JUNCTION      0.00   108.25     0  01:32           0       0.462       1.395
  YS02006553           JUNCTION      0.00   730.50     0  04:02           0        7.58       0.211
  YS02006561           JUNCTION      0.00  1062.77     0  01:32           0        13.8       0.008
  YS02006556           JUNCTION      0.00   730.69     0  04:02           0        7.59       0.145
  YS02006558           JUNCTION    751.16  1062.25     0  01:32        6.28        13.8       0.036
  YS02001783           JUNCTION      0.00  1024.12     0  01:31           0        13.8       0.019
  YS02001784           JUNCTION      1.06  1025.26     0  01:31      0.0299        13.8       0.030
  YS02001786           JUNCTION      0.06  1025.23     0  01:31     0.00159        13.8       0.028
  YS02001788           JUNCTION      0.07  1004.80     0  01:31       0.002        13.8       0.020
  YS02001790           JUNCTION      0.15   984.10     0  02:00     0.00437        13.8       0.014
  YS02001791           JUNCTION      0.00   984.22     0  01:51           0        13.8       0.008
  YS02001793           JUNCTION      0.00   984.36     0  01:51           0        13.8       0.000
  WSC                  OUTFALL       0.00  1381.87     0  01:43           0        23.5       0.000
  JK-storage           STORAGE       0.00  1024.24     0  01:30           0          14      -7.273
  CC-storage           STORAGE       0.00  2182.40     0  01:41           0        9.01       0.718
  XR-storage           STORAGE    1680.85  1680.85     0  03:01        21.3        21.9      -0.004
  
  
  **********************
  Node Surcharge Summary
  **********************
  
  Surcharging occurs when water rises above the top of the highest conduit.
  ---------------------------------------------------------------------
                                               Max. Height   Min. Depth
                                   Hours       Above Crown    Below Rim
  Node                 Type      Surcharged         Meters       Meters
  ---------------------------------------------------------------------
  WS02004401           JUNCTION        1.81          0.463        1.197
  WS02004402           JUNCTION        1.84          0.414        1.326
  WS02004403           JUNCTION        1.85          0.367        1.663
  WS02004404           JUNCTION        2.12          0.391        2.389
  WS02004406           JUNCTION        2.07          0.249        2.201
  WS02004409           JUNCTION        0.13          0.042        2.318
  WS02004410           JUNCTION        0.01          0.008        2.532
  WS02004413           JUNCTION        0.89          0.050        2.150
  WS02004405           JUNCTION        2.10          0.360        2.440
  WS02006109           JUNCTION        4.68          1.092        0.728
  WS02006110           JUNCTION        3.83          0.876        0.974
  WS02006111           JUNCTION        0.64          0.467        1.403
  WS02006112           JUNCTION        3.95          0.899        0.781
  WS02006113           JUNCTION        0.72          0.626        1.304
  WS02006115           JUNCTION        1.72          0.520        1.730
  WS02006116           JUNCTION        1.74          0.471        1.819
  WS02006230           JUNCTION        3.70          1.057        0.513
  WS02006231           JUNCTION        3.89          1.032        0.498
  WS02006232           JUNCTION        4.77          1.112        0.368
  WS02006234           JUNCTION        4.18          0.963        0.277
  WS02006235           JUNCTION        4.50          0.963        0.327
  WS02006238           JUNCTION        4.58          0.970        0.460
  WS02006240           JUNCTION        4.12          0.794        0.596
  WS02006242           JUNCTION        4.21          0.775        0.045
  WS02006243           JUNCTION        4.01          0.615        0.155
  WS02006245           JUNCTION        3.95          0.530        0.320
  WS02006247           JUNCTION        3.97          0.504        0.256
  WS02006248           JUNCTION        3.88          0.380        0.000
  WS02006249           JUNCTION        3.90          0.390        0.000
  WS02006239           JUNCTION        4.20          0.866        0.424
  WS02006251           JUNCTION        3.15          0.926        0.254
  WS02006252           JUNCTION        3.89          1.100        0.000
  WS02006253           JUNCTION        3.30          0.900        1.580
  WS02006256           JUNCTION        7.06          2.050        0.000
  WS02006228           JUNCTION        4.63          1.280        0.920
  WS02006229           JUNCTION        0.01          0.026        1.044
  HS02004817           JUNCTION        0.46          0.067        1.673
  YS02001745           JUNCTION        0.98          0.293        1.057
  YS02001748           JUNCTION        6.35          0.784        0.406
  YS02001751           JUNCTION        6.36          0.770        0.430
  YS02001754           JUNCTION        6.38          0.886        0.264
  YS02001762           JUNCTION        6.40          1.080        0.070
  YS02001765           JUNCTION        6.40          1.018        0.082
  YS02001767           JUNCTION        6.39          0.974        0.056
  YS02001770           JUNCTION        6.39          0.920        0.000
  YS02001774           JUNCTION        6.40          1.046        0.004
  YS02001779           JUNCTION        6.37          0.680        0.000
  YS02001882           JUNCTION        2.55          0.696        0.134
  YS02001884           JUNCTION        2.56          0.725        0.145
  YS02001759           JUNCTION        6.41          1.121        0.089
  YS02001887           JUNCTION        2.62          0.792        0.158
  YS02001890           JUNCTION        2.64          0.760        0.000
  YS02001898           JUNCTION        2.52          0.674        0.066
  YS02001901           JUNCTION        2.60          0.807        0.063
  YS02001904           JUNCTION        2.58          0.729        0.121
  YS02001907           JUNCTION        3.13          0.950        0.000
  YS02001910           JUNCTION        2.68          0.990        0.110
  YS02001915           JUNCTION        2.54          0.925        0.075
  YS02001918           JUNCTION        2.40          0.810        0.000
  YS02001619           JUNCTION        6.37          0.610        0.000
  YS02001629           JUNCTION        6.37          0.470        0.000
  YS02001641           JUNCTION        6.40          0.958        0.142
  YS02001644           JUNCTION        6.40          0.920        0.000
  YS02001652           JUNCTION        6.38          1.014        0.116
  YS02001655           JUNCTION        6.37          0.971        0.229
  YS02001920           JUNCTION        2.42          1.102        0.038
  YS02001923           JUNCTION        0.01          0.800        0.020
  YS02001926           JUNCTION        0.01          0.900        0.000
  YS02001929           JUNCTION        0.01          0.780        0.000
  YS02001658           JUNCTION        6.35          0.757        0.543
  YS02001661           JUNCTION        1.51          0.768        0.622
  YS02001622           JUNCTION        6.37          0.620        0.000
  YS02001633           JUNCTION        6.40          0.960        0.100
  YS02001649           JUNCTION        6.40          1.050        0.000
  YS02001757           JUNCTION        6.42          1.210        0.000
  YS02001895           JUNCTION        2.53          0.662        0.088
  YS02001625           JUNCTION        6.38          0.780        0.000
  YS02163301           JUNCTION        6.39          0.902        0.128
  YS02163601           JUNCTION        6.40          1.034        0.046
  YS02164001           JUNCTION        6.40          0.965        0.135
  YS02001647           JUNCTION        6.38          0.798        0.102
  YS02006553           JUNCTION        3.17          0.982        0.208
  YS02006561           JUNCTION        2.43          0.775        0.375
  YS02006556           JUNCTION        2.84          0.927        0.423
  YS02006558           JUNCTION        2.82          0.932        0.468
  YS02001783           JUNCTION        2.64          0.983        0.617
  YS02001784           JUNCTION        2.61          0.934        0.556
  YS02001786           JUNCTION        2.53          0.828        0.602
  YS02001788           JUNCTION        2.47          0.920        0.560
  YS02001790           JUNCTION        3.27          1.157        0.000
  YS02001791           JUNCTION        3.54          1.920        0.000
  YS02001793           JUNCTION        3.80          1.654        0.946
  
  
  *********************
  Node Flooding Summary
  *********************
  
  Flooding refers to all water that overflows a node, whether it ponds or not.
  --------------------------------------------------------------------------
                                                             Total   Maximum
                                 Maximum   Time of Max       Flood    Ponded
                        Hours       Rate    Occurrence      Volume     Depth
  Node                 Flooded       LPS   days hr:min    10^6 ltr    Meters
  --------------------------------------------------------------------------
  WS02006248              0.44    150.58      0  01:39       0.139     0.000
  WS02006249              3.22    365.96      0  01:32       1.231     0.000
  WS02006252              0.01     24.12      0  01:32       0.000     0.000
  WS02006256              4.89    835.03      0  01:40      10.845     0.000
  YS02001770              1.13    229.77      0  03:01       0.365     0.000
  YS02001779              4.24    851.43      0  02:45       6.327     0.000
  YS02001890              1.74    299.67      0  01:56       1.275     0.000
  YS02001907              2.28   1197.51      0  03:01       6.358     0.000
  YS02001918              0.01     88.28      0  01:33       0.000     0.000
  YS02001619              0.01     95.60      0  01:27       0.000     0.000
  YS02001629              0.01    229.80      0  01:27       0.002     0.000
  YS02001644              6.00   1924.36      0  03:01      17.828     0.000
  YS02001926              0.01     13.80      0  01:33       0.000     0.000
  YS02001929              0.01    264.47      0  01:33       0.001     0.000
  YS02001622              0.01    104.30      0  01:27       0.000     0.000
  YS02001649              1.30    519.74      0  03:01       1.467     0.000
  YS02001757              0.01      0.44      0  02:45       0.000     0.000
  YS02001625              3.02    801.48      0  03:01       4.633     0.000
  YS02001790              0.01    115.73      0  05:12       0.000     0.000
  YS02001791              0.01    215.35      0  05:11       0.000     0.000
  JK-storage              0.62    690.27      0  01:32       0.617     0.000
  XR-storage              6.01   1300.69      0  03:01      10.684     0.000
  
  
  **********************
  Storage Volume Summary
  **********************
  
  --------------------------------------------------------------------------------------------------
                         Average     Avg  Evap Exfil       Maximum     Max    Time of Max    Maximum
                          Volume    Pcnt  Pcnt  Pcnt        Volume    Pcnt     Occurrence    Outflow
  Storage Unit           1000 m3    Full  Loss  Loss       1000 m3    Full    days hr:min        LPS
  --------------------------------------------------------------------------------------------------
  JK-storage               0.187      64     0     0         0.291     100       0  01:32     983.00
  CC-storage               3.438      22     0     0         4.100      26       0  02:43     400.00
  XR-storage               0.866      93     0     0         0.926     100       0  01:49     380.00
  
  
  ***********************
  Outfall Loading Summary
  ***********************
  
  ---------------------------------------------------------------------------------------------------------------------------------
                         Flow       Avg       Max       Total         Total         Total         Total         Total         Total
                         Freq      Flow      Flow      Volume           COD            SS            TN            TP         NH4-N
  Outfall Node           Pcnt       LPS       LPS    10^6 ltr            kg            kg            kg            kg            kg
  ---------------------------------------------------------------------------------------------------------------------------------
  WSC                   99.98    863.98   1381.87      23.502      2912.373      5355.221       136.222        14.971        79.528
  ---------------------------------------------------------------------------------------------------------------------------------
  System                99.98    863.98   1381.87      23.502      2912.373      5355.221       136.222        14.971        79.528
  
  
  ********************
  Link Flow Summary
  ********************
  
  -----------------------------------------------------------------------------
                                 Maximum  Time of Max   Maximum    Max/    Max/
                                  |Flow|   Occurrence   |Veloc|    Full    Full
  Link                 Type          LPS  days hr:min     m/sec    Flow   Depth
  -----------------------------------------------------------------------------
  WS02003066WSF200     CONDUIT   1001.26     0  01:36      3.05    0.17    0.33
  WS02006287WS02006284 CONDUIT    934.56     0  01:35      2.63    0.43    0.46
  WS02006284WS02006280 CONDUIT    937.79     0  01:34      2.86    0.39    0.44
  WS02006280WS02006229 CONDUIT    969.00     0  01:34      4.53    0.21    0.75
  WS02006229WS02006228 CONDUIT    976.73     0  01:34      1.94    3.24    1.00
  WS02006256WS02006235 CONDUIT    288.92     0  00:00      4.23    3.06    1.00
  WS02006253WS02006251 CONDUIT    287.29     0  01:32      0.83    0.86    1.00
  WS02006252WS02006251 CONDUIT    406.63     0  03:50      3.24    1.49    1.00
  WS02006251WS02006249 CONDUIT    501.54     0  02:50      1.30    1.45    1.00
  WS02006249WS02006248 CONDUIT    416.89     0  06:30      1.12    2.28    1.00
  WS02006248WS02006247 CONDUIT    416.66     0  06:30      1.08    0.91    1.00
  WS02006247WS02006245 CONDUIT    416.75     0  06:30      1.08    3.30    1.00
  WS02006245WS02006243 CONDUIT    417.18     0  06:30      1.08    1.23    1.00
  WS02006243WS02006242 CONDUIT    417.64     0  06:30      1.09    0.89    1.00
  WS02006242WS02006240 CONDUIT    417.81     0  06:30      1.09    1.66    1.00
  WS02006240WS02006239 CONDUIT    419.07     0  06:30      1.09    1.32    1.00
  WS02006239WS02006238 CONDUIT    419.45     0  06:30      1.09    1.34    1.00
  WS02006238WS02006235 CONDUIT    420.20     0  06:30      1.45    0.94    1.00
  WS02006235WS02006234 CONDUIT    522.76     0  06:16      1.36    5.52    1.00
  WS02006234WS02006232 CONDUIT    522.36     0  05:43      1.39    1.06    1.00
  WS02006232WS02006231 CONDUIT    522.28     0  06:18      1.36    1.09    1.00
  WS02006231WS02006230 CONDUIT    522.12     0  06:10      1.36    7.92    1.00
  WS02006230WS02006229 CONDUIT    534.93     0  05:43      1.39   11.90    1.00
  WS02006228WS02006109 CONDUIT    976.87     0  01:34      1.94    4.27    1.00
  WS02006116WS02004401 CONDUIT   1015.93     0  01:34      1.29    1.40    1.00
  WS02006115WS02006116 CONDUIT   1016.08     0  01:34      1.29    1.30    1.00
  WS02006113WS02006111 CONDUIT    977.70     0  01:34      2.66    1.17    1.00
  WS02006112WS02006115 CONDUIT   1016.07     0  01:34      1.29    0.60    1.00
  WS02006111WS02006112 CONDUIT    977.88     0  01:34      1.95    0.46    1.00
  WS02006110WS02006113 CONDUIT    977.90     0  01:34      1.95    0.89    1.00
  WS02006109WS02006110 CONDUIT    978.00     0  01:34      1.95    1.88    1.00
  WS02004411WS02004412 CONDUIT    993.92     0  01:36      1.29    1.41    0.96
  WS02004401WS02004402 CONDUIT   1016.33     0  01:34      1.29    1.22    1.00
  WS02004413WS02003067 CONDUIT    996.36     0  01:35      1.63    0.43    0.73
  WS02004412WS02004413 CONDUIT    994.80     0  01:35      1.28    0.67    0.97
  WS02004410WS02004411 CONDUIT    993.54     0  01:36      1.27    1.36    0.99
  WS02004409WS02004410 CONDUIT   1008.67     0  01:34      1.29    1.30    1.00
  WS02004407WS02004409 CONDUIT   1016.30     0  01:34      1.85    0.36    0.71
  WS02004406WS02004407 CONDUIT   1019.45     0  01:34      1.72    0.46    0.71
  WS02004405WS02004406 CONDUIT   1018.65     0  01:34      1.30    2.01    1.00
  WS02004404WS02004405 CONDUIT   1018.66     0  01:34      1.30    9.98    1.00
  WS02004403WS02004404 CONDUIT   1017.50     0  01:34      1.30    0.74    1.00
  WS02004402WS02004403 CONDUIT   1017.24     0  01:34      1.30    1.46    1.00
  WS02004139WS02001211 CONDUIT    382.77     0  03:15      0.90    0.48    0.65
  WS02004138WS02004139 CONDUIT    395.52     0  00:00      3.64    0.08    0.47
  WS02003067WS02003066 CONDUIT   1000.48     0  01:35      1.71    0.32    0.52
  WS02001213WS02003059 CONDUIT    397.99     0  03:14      0.89    0.66    0.88
  WS02001212WS02001213 CONDUIT    395.22     0  03:15      1.32    0.61    0.57
  WS02001211WS02001212 CONDUIT    392.84     0  03:15      0.78    0.30    0.72
  WS02003072WS02003073 CONDUIT   1379.11     0  01:42      1.99    2.98    0.59
  WS02003069WS02003072 CONDUIT   1379.14     0  01:43      1.84    0.66    0.63
  WS02003060WS02003069 CONDUIT   1378.69     0  01:42      2.04    0.54    0.58
  WS02003059WS02003060 CONDUIT    401.29     0  03:14      0.95    0.26    0.79
  HS02004901HS02004770 CONDUIT     47.75     0  01:32      0.11    0.18    0.61
  HS02004876HS02004881 CONDUIT    177.76     0  01:33      1.41    1.89    0.20
  HS02004870HS02004876 CONDUIT    143.30     0  01:35      0.95    0.10    0.22
  HS02004842HS02004848 CONDUIT     21.86     0  01:49      0.09    0.01    0.35
  HS02004837HS02004842 CONDUIT     22.38     0  01:49      0.42    0.01    0.37
  HS02004830HS02004837 CONDUIT     81.97     0  01:35      0.70    0.08    0.18
  HS02004824HS02004830 CONDUIT     82.88     0  01:37      0.63    0.11    0.25
  HS02004817HS02004824 CONDUIT    166.01     0  01:39      0.37    0.07    0.64
  HS02004770HS02004777 CONDUIT    244.64     0  01:32      0.57    0.45    0.62
  HS02004799HS02004480 CONDUIT    605.42     0  01:33      1.21    0.76    0.71
  HS02004792HS02004799 CONDUIT    554.25     0  01:33      1.36    0.34    0.58
  HS02004788HS02004792 CONDUIT    319.85     0  01:34      1.40    0.21    0.33
  HS02004785HS02004788 CONDUIT    244.45     0  01:33      1.02    1.84    0.34
  HS02004777HS02004785 CONDUIT    244.32     0  01:33      0.67    0.30    0.52
  HS02004480HS02004478 CONDUIT    712.97     0  01:33      1.74    3.00    0.59
  HS02004479HS02004480 CONDUIT    107.65     0  01:33      0.45    0.10    0.68
  HS02004862HS02004870 CONDUIT    109.57     0  01:36      0.90    0.12    0.17
  HS02004848HS02004852 CONDUIT     51.63     0  01:36      0.58    0.06    0.13
  HS02004856HS02004862 CONDUIT     76.86     0  01:35      0.67    0.08    0.16
  HS02004852HS02004856 CONDUIT     51.73     0  01:36      0.39    0.06    0.19
  HS02004802HS02004478 CONDUIT    227.64     0  01:38      0.57    0.20    0.58
  HS02004478WS02006287 CONDUIT    934.66     0  01:35      2.37    0.26    0.44
  HS02004817HS02004807 CONDUIT    166.71     0  01:39      0.30    0.10    0.81
  HS02004807HS02004802 CONDUIT    226.44     0  01:37      0.51    0.43    0.64
  YS02001759YS02001757 CONDUIT    899.39     0  01:41      1.15    0.64    1.00
  YS02001762YS02001759 CONDUIT    370.53     0  01:26      0.47    0.43    1.00
  YS02001765YS02001762 CONDUIT    368.48     0  01:32      0.47    0.35    1.00
  YS02001770YS02001767 CONDUIT    371.61     0  01:26      0.50    1.47    1.00
  YS02001774YS02001770 CONDUIT    852.05     0  02:45      1.08    0.54    1.00
  YS02001779YS02001774 CONDUIT    851.66     0  02:45      1.08    0.43    1.00
  YS02001649YS02001757 CONDUIT    889.67     0  01:39      1.13    0.54    1.00
  YS02001767YS02001765 CONDUIT    368.54     0  01:35      0.48    0.46    1.00
  YS02006561YS02001783 CONDUIT   1024.12     0  01:31      2.27    0.53    1.00
  YS02001783YS02001784 CONDUIT   1024.20     0  01:31      2.04    1.41    1.00
  YS02001784YS02001785 CONDUIT   1025.17     0  01:31      2.08    2.39    1.00
  YS02001788YS02001790 CONDUIT    983.94     0  02:00      2.48    0.73    1.00
  YS02001790YS02001791 CONDUIT    984.22     0  01:51      2.97    1.07    1.00
  YS02001791YS02001793 CONDUIT    984.36     0  01:51      5.82    0.42    1.00
  YS02001910YS02001907 CONDUIT    911.58     0  03:01      1.16    0.51    1.00
  YS02001786YS02001788 CONDUIT   1004.73     0  01:31      2.32    1.94    1.00
  YS02001915YS02001910 CONDUIT    911.29     0  03:01      1.16    0.45    1.00
  YS02001918YS02001915 CONDUIT    436.71     0  01:32      0.56    0.24    1.00
  YS02001923YS02001920 CONDUIT    403.08     0  01:33      0.92    0.18    1.00
  YS02001926YS02001923 CONDUIT    463.59     0  01:33      1.00    0.66    1.00
  YS02001929YS02001926 CONDUIT    352.47     0  03:01      1.07    0.17    1.00
  YS02001920YS02001918 CONDUIT    401.63     0  01:34      0.85    0.39    1.00
  YS02001629YS02163301 CONDUIT    283.09     0  01:26      0.36    0.35    1.00
  YS02001619YS02001622 CONDUIT    574.87     0  03:01      0.86    0.85    1.00
  YS02001622YS02001625 CONDUIT    575.16     0  03:01      0.73    0.31    1.00
  YS02001625YS02001629 CONDUIT    258.13     0  01:26      0.39    0.12    1.00
  YS02163301YS02001633 CONDUIT    277.02     0  01:26      0.35    0.26    1.00
  YS02163601YS02164001 CONDUIT    458.40     0  01:28      0.58    0.41    1.00
  YS02164001YS02001641 CONDUIT    456.53     0  01:28      0.58    0.62    1.00
  YS02001641YS02001644 CONDUIT    458.24     0  01:28      0.58    1.48    1.00
  YS02001647YS02001649 CONDUIT    846.70     0  02:45      1.08    0.45    1.00
  YS02006553YS02006556 CONDUIT    730.69     0  04:02      0.93    0.63    1.00
  YS02006556YS02006558 CONDUIT    730.85     0  04:02      0.93    0.58    1.00
  YSB6556YSB1171       CONDUIT     59.52     0  01:34      0.17    0.06    0.88
  YS02001907YS02006553 CONDUIT    730.50     0  04:02      0.81    0.86    1.00
  YS02006558YS02006561 CONDUIT   1062.77     0  01:32      3.77    2.35    1.00
  YS02001633YS02163601 CONDUIT    459.78     0  01:28      0.59    0.48    1.00
  YS02001644YS02001647 CONDUIT    846.70     0  02:45      1.08    0.50    1.00
  YS02001745YS02001748 CONDUIT    667.45     0  03:01      1.86    0.26    1.00
  YS02001748YS02001751 CONDUIT    667.77     0  03:01      1.39    0.34    1.00
  YS02001751YS02001754 CONDUIT    668.39     0  03:01      1.15    0.32    1.00
  YS02001754YS02001757 CONDUIT    669.06     0  03:01      0.85    0.27    1.00
  YS02001882YS02001884 CONDUIT     36.84     0  01:29      0.22    0.04    1.00
  YS02001884YS02001887 CONDUIT     64.45     0  01:29      0.16    0.09    1.00
  YS02001890YS02001895 CONDUIT    593.47     0  01:32      0.76    0.28    1.00
  YS02001895YS02001898 CONDUIT    597.23     0  01:32      0.76    1.04    1.00
  YS02001898YS02001901 CONDUIT    602.11     0  01:32      0.77    0.39    1.00
  YS02001901YS02001904 CONDUIT    604.18     0  01:32      0.77    0.94    1.00
  YS02001904YS02001907 CONDUIT    605.74     0  01:32      0.77    0.21    1.00
  YS02001887YS02001890 CONDUIT    815.79     0  01:57      1.04    1.40    1.00
  YS02001652YS02001649 CONDUIT    639.70     0  03:01      0.84    0.32    1.00
  YS02001655YS02001652 CONDUIT    639.59     0  03:01      1.25    0.31    1.00
  YS02001658YS02001655 CONDUIT    639.24     0  03:01      1.61    0.27    1.00
  YS02001661YS02001658 CONDUIT    638.98     0  03:01      1.99    0.25    1.00
  YS02001664YS02001661 CONDUIT    801.19     0  01:41      1.90    0.25    0.84
  YSB1154YSB6556       CONDUIT     59.44     0  01:33      0.17    0.11    0.84
  YSB1174YSB1171       CONDUIT     50.30     0  01:30      0.14    0.08    0.92
  YSB1171HS02004479    CONDUIT    107.71     0  01:33      0.54    0.07    0.78
  HS02004881HS02006253 CONDUIT    284.43     0  01:32      2.76    0.06    0.57
  YS02001793JiankangQianchi CONDUIT   1024.24     0  01:30     16.74    0.08    1.00
  YS02001757CaochengTiaoxuchi CONDUIT   2182.40     0  01:41      3.80    0.96    1.00
  WSF200WS02003060     CONDUIT   1004.63     0  01:36      2.04    0.22    0.46
  1                    CONDUIT   1381.87     0  01:43      3.62    0.48    0.49
  CC-Pump-1            PUMP       200.00     0  02:10              1.00
  CC-Pump-2            PUMP       200.00     0  03:50              1.00
  JK-Pump-1            PUMP       300.00     0  00:00              1.00
  JK-Pump-2            PUMP       683.00     0  01:40              1.00
  XR-Pump-1            PUMP        95.00     0  00:00              1.00
  XR-Pump-2            PUMP        95.00     0  00:00              1.00
  XR-Pump-3            PUMP        95.00     0  00:00              1.00
  XR-Pump-4            PUMP        95.00     0  00:00              1.00
  
  
  ***************************
  Flow Classification Summary
  ***************************
  
  -------------------------------------------------------------------------------------
                      Adjusted    ---------- Fraction of Time in Flow Class ---------- 
                       /Actual         Up    Down  Sub   Sup   Up    Down  Norm  Inlet 
  Conduit               Length    Dry  Dry   Dry   Crit  Crit  Crit  Crit  Ltd   Ctrl  
  -------------------------------------------------------------------------------------
  WS02003066WSF200        1.00   0.01  0.02  0.00  0.00  0.97  0.00  0.00  0.37  0.00
  WS02006287WS02006284    1.00   0.03  0.01  0.00  0.62  0.34  0.00  0.00  0.61  0.00
  WS02006284WS02006280    1.00   0.04  0.00  0.00  0.00  0.00  0.00  0.96  0.00  0.00
  WS02006280WS02006229    1.00   0.04  0.00  0.00  0.05  0.11  0.00  0.80  0.06  0.00
  WS02006229WS02006228    1.00   0.00  0.00  0.00  1.00  0.00  0.00  0.00  0.00  0.00
  WS02006256WS02006235    1.00   0.00  0.00  0.00  1.00  0.00  0.00  0.00  0.00  0.00
  WS02006253WS02006251    1.00   0.02  0.02  0.00  0.96  0.00  0.01  0.00  0.00  0.00
  WS02006252WS02006251    1.00   0.08  0.00  0.00  0.34  0.01  0.57  0.00  0.00  0.00
  WS02006251WS02006249    1.00   0.00  0.00  0.00  1.00  0.00  0.00  0.00  0.13  0.00
  WS02006249WS02006248    1.00   0.00  0.01  0.00  0.93  0.00  0.06  0.00  0.00  0.00
  WS02006248WS02006247    1.00   0.01  0.00  0.00  0.99  0.00  0.00  0.00  0.06  0.00
  WS02006247WS02006245    1.00   0.01  0.00  0.00  0.99  0.00  0.00  0.00  0.00  0.00
  WS02006245WS02006243    1.00   0.00  0.00  0.00  0.96  0.00  0.00  0.03  0.00  0.00
  WS02006243WS02006242    1.00   0.00  0.00  0.00  0.99  0.00  0.00  0.00  0.15  0.00
  WS02006242WS02006240    1.00   0.00  0.00  0.00  0.99  0.00  0.01  0.00  0.00  0.00
  WS02006240WS02006239    1.00   0.00  0.00  0.00  0.96  0.00  0.00  0.04  0.01  0.00
  WS02006239WS02006238    1.00   0.00  0.00  0.00  1.00  0.00  0.00  0.00  0.09  0.00
  WS02006238WS02006235    1.00   0.00  0.00  0.00  1.00  0.00  0.00  0.00  0.00  0.00
  WS02006235WS02006234    1.00   0.00  0.00  0.00  0.98  0.00  0.02  0.00  0.00  0.00
  WS02006234WS02006232    1.00   0.00  0.00  0.00  1.00  0.00  0.00  0.00  0.04  0.00
  WS02006232WS02006231    1.00   0.00  0.00  0.00  1.00  0.00  0.00  0.00  0.00  0.00
  WS02006231WS02006230    1.00   0.00  0.00  0.00  0.68  0.00  0.32  0.00  0.00  0.00
  WS02006230WS02006229    1.00   0.00  0.00  0.00  1.00  0.00  0.00  0.00  0.00  0.00
  WS02006228WS02006109    1.00   0.00  0.00  0.00  1.00  0.00  0.00  0.00  0.00  0.00
  WS02006116WS02004401    1.00   0.01  0.00  0.00  0.99  0.00  0.00  0.00  0.00  0.00
  WS02006115WS02006116    1.00   0.01  0.00  0.00  0.99  0.00  0.00  0.00  0.00  0.00
  WS02006113WS02006111    1.00   0.01  0.00  0.00  0.17  0.82  0.00  0.00  0.13  0.00
  WS02006112WS02006115    1.00   0.01  0.00  0.00  0.99  0.00  0.00  0.00  0.00  0.00
  WS02006111WS02006112    1.00   0.01  0.00  0.00  0.99  0.00  0.00  0.00  0.71  0.00
  WS02006110WS02006113    1.00   0.00  0.00  0.00  0.99  0.00  0.00  0.00  0.00  0.00
  WS02006109WS02006110    1.00   0.00  0.00  0.00  0.99  0.00  0.00  0.00  0.00  0.00
  WS02004411WS02004412    1.00   0.02  0.00  0.00  0.98  0.00  0.00  0.00  0.00  0.00
  WS02004401WS02004402    1.00   0.01  0.00  0.00  0.99  0.00  0.00  0.00  0.00  0.00
  WS02004413WS02003067    1.00   0.02  0.01  0.00  0.00  0.00  0.97  0.00  0.00  0.00
  WS02004412WS02004413    1.00   0.02  0.00  0.00  0.98  0.00  0.00  0.00  0.01  0.00
  WS02004410WS02004411    1.00   0.02  0.00  0.00  0.98  0.00  0.00  0.00  0.00  0.00
  WS02004409WS02004410    1.00   0.02  0.00  0.00  0.98  0.00  0.00  0.00  0.02  0.00
  WS02004407WS02004409    1.00   0.02  0.00  0.00  0.98  0.00  0.00  0.00  0.94  0.00
  WS02004406WS02004407    1.00   0.00  0.02  0.00  0.98  0.00  0.00  0.00  0.00  0.00
  WS02004405WS02004406    1.00   0.00  0.00  0.00  1.00  0.00  0.00  0.00  0.00  0.00
  WS02004404WS02004405    1.00   0.00  0.00  0.00  1.00  0.00  0.00  0.00  0.00  0.00
  WS02004403WS02004404    1.00   0.00  0.01  0.00  0.99  0.00  0.00  0.00  0.00  0.00
  WS02004402WS02004403    1.00   0.01  0.00  0.00  0.99  0.00  0.00  0.00  0.00  0.00
  WS02004139WS02001211    1.00   0.00  0.00  0.00  1.00  0.00  0.00  0.00  0.00  0.00
  WS02004138WS02004139    1.00   0.00  0.00  0.00  1.00  0.00  0.00  0.00  1.00  0.00
  WS02003067WS02003066    1.00   0.03  0.00  0.00  0.97  0.00  0.00  0.00  0.00  0.00
  WS02001213WS02003059    1.00   0.00  0.00  0.00  1.00  0.00  0.00  0.00  0.00  0.00
  WS02001212WS02001213    1.00   0.00  0.00  0.00  0.93  0.00  0.06  0.00  0.00  0.00
  WS02001211WS02001212    1.00   0.00  0.00  0.00  1.00  0.00  0.00  0.00  0.00  0.00
  WS02003072WS02003073    1.00   0.00  0.00  0.00  0.00  0.00  0.00  1.00  0.00  0.00
  WS02003069WS02003072    1.00   0.00  0.00  0.00  1.00  0.00  0.00  0.00  0.07  0.00
  WS02003060WS02003069    1.00   0.00  0.00  0.00  0.99  0.01  0.00  0.00  0.05  0.00
  WS02003059WS02003060    1.00   0.00  0.00  0.00  1.00  0.00  0.00  0.00  0.01  0.00
  HS02004901HS02004770    1.00   0.04  0.00  0.00  0.96  0.00  0.00  0.00  0.00  0.00
  HS02004876HS02004881    1.00   0.01  0.00  0.00  0.80  0.19  0.00  0.00  0.00  0.00
  HS02004870HS02004876    1.00   0.00  0.00  0.00  0.99  0.00  0.00  0.00  0.95  0.00
  HS02004842HS02004848    1.00   0.00  0.04  0.00  0.96  0.00  0.00  0.00  0.53  0.00
  HS02004837HS02004842    1.00   0.00  0.00  0.00  1.00  0.00  0.00  0.00  0.11  0.00
  HS02004830HS02004837    1.00   0.00  0.00  0.00  1.00  0.00  0.00  0.00  0.99  0.00
  HS02004824HS02004830    1.00   0.00  0.00  0.00  1.00  0.00  0.00  0.00  0.03  0.00
  HS02004817HS02004824    1.00   0.00  0.00  0.00  1.00  0.00  0.00  0.00  0.86  0.00
  HS02004770HS02004777    1.00   0.00  0.04  0.00  0.96  0.00  0.00  0.00  0.01  0.00
  HS02004799HS02004480    1.00   0.00  0.01  0.00  0.96  0.00  0.03  0.00  0.00  0.00
  HS02004792HS02004799    1.00   0.00  0.00  0.00  0.99  0.01  0.00  0.00  0.98  0.00
  HS02004788HS02004792    1.00   0.00  0.00  0.00  1.00  0.00  0.00  0.00  0.98  0.00
  HS02004785HS02004788    1.00   0.00  0.00  0.00  1.00  0.00  0.00  0.00  0.00  0.00
  HS02004777HS02004785    1.00   0.00  0.00  0.00  1.00  0.00  0.00  0.00  0.10  0.00
  HS02004480HS02004478    1.00   0.04  0.00  0.00  0.67  0.00  0.00  0.29  0.00  0.00
  HS02004479HS02004480    1.00   0.02  0.00  0.00  0.98  0.00  0.00  0.00  0.10  0.00
  HS02004862HS02004870    1.00   0.00  0.00  0.00  1.00  0.00  0.00  0.00  0.02  0.00
  HS02004848HS02004852    1.00   0.04  0.00  0.00  0.96  0.00  0.00  0.00  0.83  0.00
  HS02004856HS02004862    1.00   0.00  0.04  0.00  0.96  0.00  0.00  0.00  0.85  0.00
  HS02004852HS02004856    1.00   0.04  0.00  0.00  0.96  0.00  0.00  0.00  0.69  0.00
  HS02004802HS02004478    1.00   0.04  0.00  0.00  0.96  0.00  0.00  0.00  0.01  0.00
  HS02004478WS02006287    1.00   0.04  0.00  0.00  0.71  0.24  0.00  0.00  0.58  0.00
  HS02004817HS02004807    1.00   0.00  0.04  0.00  0.96  0.00  0.00  0.00  0.01  0.00
  HS02004807HS02004802    1.00   0.04  0.00  0.00  0.96  0.00  0.00  0.00  0.00  0.00
  YS02001759YS02001757    1.00   0.00  0.00  0.00  1.00  0.00  0.00  0.00  0.15  0.00
  YS02001762YS02001759    1.00   0.00  0.00  0.00  1.00  0.00  0.00  0.00  0.01  0.00
  YS02001765YS02001762    1.00   0.00  0.00  0.00  1.00  0.00  0.00  0.00  0.13  0.00
  YS02001770YS02001767    1.00   0.00  0.00  0.00  1.00  0.00  0.00  0.00  0.00  0.00
  YS02001774YS02001770    1.00   0.00  0.04  0.00  0.96  0.00  0.00  0.00  0.01  0.00
  YS02001779YS02001774    1.00   0.00  0.00  0.00  1.00  0.00  0.00  0.00  0.15  0.00
  YS02001649YS02001757    1.00   0.00  0.00  0.00  1.00  0.00  0.00  0.00  0.14  0.00
  YS02001767YS02001765    1.00   0.00  0.00  0.00  1.00  0.00  0.00  0.00  0.00  0.00
  YS02006561YS02001783    1.00   0.05  0.00  0.00  0.48  0.47  0.00  0.00  0.34  0.00
  YS02001783YS02001784    1.00   0.00  0.05  0.00  0.95  0.00  0.00  0.00  0.00  0.00
  YS02001784YS02001785    1.00   0.00  0.00  0.00  1.00  0.00  0.00  0.00  0.15  0.00
  YS02001788YS02001790    1.00   0.00  0.00  0.00  0.58  0.42  0.00  0.00  0.25  0.00
  YS02001790YS02001791    1.00   0.00  0.00  0.00  0.55  0.45  0.00  0.00  0.32  0.00
  YS02001791YS02001793    1.00   0.00  0.00  0.00  0.57  0.43  0.00  0.00  0.02  0.00
  YS02001910YS02001907    1.00   0.00  0.00  0.00  0.99  0.00  0.00  0.01  0.11  0.00
  YS02001786YS02001788    1.00   0.00  0.00  0.00  0.56  0.44  0.00  0.00  0.00  0.00
  YS02001915YS02001910    1.00   0.00  0.00  0.00  0.99  0.01  0.00  0.00  0.12  0.00
  YS02001918YS02001915    1.00   0.00  0.00  0.00  0.99  0.01  0.00  0.00  0.43  0.00
  YS02001923YS02001920    1.00   0.00  0.00  0.00  1.00  0.00  0.00  0.00  0.65  0.00
  YS02001926YS02001923    1.00   0.00  0.03  0.00  0.29  0.00  0.68  0.00  0.00  0.00
  YS02001929YS02001926    1.00   0.00  0.04  0.00  0.96  0.00  0.00  0.00  0.56  0.00
  YS02001920YS02001918    1.00   0.00  0.00  0.00  1.00  0.00  0.00  0.00  0.00  0.00
  YS02001629YS02163301    1.00   0.04  0.00  0.00  0.96  0.00  0.00  0.00  0.00  0.00
  YS02001619YS02001622    1.00   0.04  0.00  0.00  0.96  0.00  0.00  0.00  0.00  0.00
  YS02001622YS02001625    1.00   0.04  0.00  0.00  0.96  0.00  0.00  0.00  0.02  0.00
  YS02001625YS02001629    1.00   0.04  0.01  0.00  0.94  0.00  0.01  0.00  0.00  0.00
  YS02163301YS02001633    1.00   0.00  0.04  0.00  0.96  0.00  0.00  0.00  0.00  0.00
  YS02163601YS02164001    1.00   0.00  0.03  0.00  0.97  0.00  0.00  0.00  0.00  0.00
  YS02164001YS02001641    1.00   0.00  0.02  0.00  0.97  0.00  0.00  0.00  0.05  0.00
  YS02001641YS02001644    1.00   0.00  0.00  0.00  1.00  0.00  0.00  0.00  0.00  0.00
  YS02001647YS02001649    1.00   0.00  0.04  0.00  0.95  0.00  0.00  0.00  0.01  0.00
  YS02006553YS02006556    1.00   0.01  0.00  0.00  0.99  0.00  0.00  0.00  0.03  0.00
  YS02006556YS02006558    1.00   0.00  0.00  0.00  1.00  0.00  0.00  0.00  0.00  0.00
  YSB6556YSB1171          1.00   0.02  0.02  0.00  0.96  0.00  0.00  0.00  0.00  0.00
  YS02001907YS02006553    1.00   0.00  0.01  0.00  0.99  0.00  0.00  0.00  0.00  0.00
  YS02006558YS02006561    1.00   0.05  0.00  0.00  0.29  0.66  0.00  0.00  0.35  0.00
  YS02001633YS02163601    1.00   0.00  0.00  0.00  1.00  0.00  0.00  0.00  0.14  0.00
  YS02001644YS02001647    1.00   0.00  0.05  0.00  0.95  0.00  0.00  0.00  0.00  0.00
  YS02001745YS02001748    1.00   0.00  0.00  0.00  0.93  0.00  0.00  0.07  0.00  0.00
  YS02001748YS02001751    1.00   0.00  0.00  0.00  0.98  0.02  0.00  0.00  0.13  0.00
  YS02001751YS02001754    1.00   0.00  0.00  0.00  0.95  0.00  0.00  0.05  0.01  0.00
  YS02001754YS02001757    1.00   0.00  0.00  0.00  1.00  0.00  0.00  0.00  0.15  0.00
  YS02001882YS02001884    1.00   0.04  0.00  0.00  0.96  0.00  0.00  0.00  0.00  0.00
  YS02001884YS02001887    1.00   0.02  0.01  0.00  0.96  0.00  0.00  0.00  0.00  0.00
  YS02001890YS02001895    1.00   0.00  0.04  0.00  0.96  0.00  0.00  0.00  0.00  0.00
  YS02001895YS02001898    1.00   0.04  0.00  0.00  0.95  0.00  0.01  0.00  0.00  0.00
  YS02001898YS02001901    1.00   0.04  0.00  0.00  0.96  0.00  0.00  0.00  0.00  0.00
  YS02001901YS02001904    1.00   0.04  0.00  0.00  0.96  0.00  0.00  0.00  0.00  0.00
  YS02001904YS02001907    1.00   0.00  0.04  0.00  0.96  0.00  0.00  0.00  0.00  0.00
  YS02001887YS02001890    1.00   0.00  0.00  0.00  0.99  0.00  0.01  0.00  0.00  0.00
  YS02001652YS02001649    1.00   0.00  0.00  0.00  1.00  0.00  0.00  0.00  0.14  0.00
  YS02001655YS02001652    1.00   0.00  0.00  0.00  0.95  0.00  0.00  0.05  0.01  0.00
  YS02001658YS02001655    1.00   0.00  0.04  0.00  0.94  0.02  0.00  0.00  0.01  0.00
  YS02001661YS02001658    1.00   0.04  0.00  0.00  0.93  0.03  0.00  0.00  0.00  0.00
  YS02001664YS02001661    1.00   0.04  0.00  0.00  0.94  0.03  0.00  0.00  0.06  0.00
  YSB1154YSB6556          1.00   0.04  0.00  0.00  0.96  0.00  0.00  0.00  0.01  0.00
  YSB1174YSB1171          1.00   0.02  0.01  0.00  0.97  0.00  0.00  0.00  0.00  0.00
  YSB1171HS02004479       1.00   0.02  0.00  0.00  0.98  0.00  0.00  0.00  0.09  0.00
  HS02004881HS02006253    1.00   0.02  0.00  0.00  0.81  0.02  0.00  0.14  0.73  0.00
  YS02001793JiankangQianchi    1.00   0.00  0.00  0.00  0.80  0.20  0.00  0.00  0.28  0.00
  YS02001757CaochengTiaoxuchi    1.00   0.00  0.06  0.00  0.92  0.03  0.00  0.00  0.00  0.00
  WSF200WS02003060        1.00   0.00  0.01  0.00  0.99  0.00  0.00  0.00  0.31  0.00
  1                       1.00   0.00  0.00  0.00  0.00  1.00  0.00  0.00  0.60  0.00
  
  
  *************************
  Conduit Surcharge Summary
  *************************
  
  ----------------------------------------------------------------------------
                                                           Hours        Hours 
                         --------- Hours Full --------   Above Full   Capacity
  Conduit                Both Ends  Upstream  Dnstream   Normal Flow   Limited
  ----------------------------------------------------------------------------
  WS02006280WS02006229        0.01      0.01      0.01      0.01         0.01
  WS02006229WS02006228        4.63      4.74      4.63      5.29         4.63
  WS02006256WS02006235        6.53      6.54      7.06      5.15         0.01
  WS02006253WS02006251        3.83      3.84      3.88      0.01         0.02
[...]
  YS02001649YS02001757        6.40      6.40      6.42      0.01         0.01
  YS02001767YS02001765        6.39      6.39      6.40      0.01         0.01
  YS02006561YS02001783        2.43      2.43      2.64      0.01         0.01
  YS02001783YS02001784        2.61      2.64      2.61      2.89         2.60
  YS02001784YS02001785        2.53      2.61      2.53      3.61         2.53
  YS02001788YS02001790        2.47      2.47      3.27      0.01         0.01
  YS02001790YS02001791        3.26      3.27      3.54      2.57         2.55
  YS02001791YS02001793        3.54      3.54      3.89      0.01         0.01
  YS02001910YS02001907        2.68      2.68      3.13      0.01         0.01
  YS02001786YS02001788        2.47      2.53      2.47      3.25         2.47
  YS02001915YS02001910        2.54      2.54      2.68      0.01         0.01
  YS02001918YS02001915        2.40      2.40      2.54      0.01         0.01
  YS02001923YS02001920        2.24      2.24      2.42      0.01         0.01
  YS02001926YS02001923        0.01      0.01      0.01      0.01         0.01
  YS02001929YS02001926        0.01      0.01      0.01      0.01         0.01
  YS02001920YS02001918        2.40      2.40      2.42      0.01         0.01
  YS02001629YS02163301        6.38      6.38      6.39      0.01         0.01
  YS02001619YS02001622        6.37      6.37      6.37      0.01         0.03
  YS02001622YS02001625        6.37      6.37      6.38      0.01         0.01
  YS02001625YS02001629        6.37      6.37      6.38      0.01         0.01
  YS02163301YS02001633        6.39      6.39      6.40      0.01         0.01
  YS02163601YS02164001        6.40      6.40      6.40      0.01         0.01
  YS02164001YS02001641        6.40      6.40      6.40      0.01         0.02
  YS02001641YS02001644        6.40      6.40      6.40      3.17         3.18
  YS02001647YS02001649        6.38      6.38      6.40      0.01         0.01
  YS02006553YS02006556        2.84      2.84      3.17      0.01         0.01
  YS02006556YS02006558        2.94      2.94      3.24      0.01         0.01
  YSB6556YSB1171              0.01      0.01      0.58      0.01         0.01
  YS02001907YS02006553        3.63      3.63      3.82      0.01         0.01
  YS02006558YS02006561        2.50      2.82      2.50      3.49         2.50
  YS02001633YS02163601        6.40      6.40      6.40      0.01         0.01
  YS02001644YS02001647        6.38      6.38      6.40      0.01         0.01
  YS02001745YS02001748        0.98      0.98      6.35      0.01         0.01
  YS02001748YS02001751        6.35      6.35      6.36      0.01         0.01
  YS02001751YS02001754        6.36      6.36      6.38      0.01         0.01
  YS02001754YS02001757        6.38      6.38      6.42      0.01         0.01
  YS02001882YS02001884        2.55      2.55      2.56      0.01         0.01
  YS02001884YS02001887        2.60      2.60      2.62      0.01         0.01
  YS02001890YS02001895        2.53      2.53      2.69      0.01         0.01
  YS02001895YS02001898        2.52      2.52      2.53      0.01         0.01
  YS02001898YS02001901        2.53      2.53      2.60      0.01         0.01
  YS02001901YS02001904        2.58      2.58      2.60      0.01         0.01
  YS02001904YS02001907        2.58      2.58      3.20      0.01         0.01
  YS02001887YS02001890        2.64      2.64      2.66      1.66         0.01
  YS02001652YS02001649        6.38      6.38      6.40      0.01         0.01
  YS02001655YS02001652        6.37      6.37      6.38      0.01         0.01
  YS02001658YS02001655        6.35      6.35      6.37      0.01         0.01
  YS02001661YS02001658        1.49      1.49      6.35      0.01         0.01
  YS02001664YS02001661        0.01      0.01      2.57      0.01         0.01
  YSB1174YSB1171              0.01      0.01      0.32      0.01         0.01
  HS02004881HS02006253        0.01      0.01      3.31      0.01         0.01
  YS02001793JiankangQianchi        3.80      3.80      5.03      0.01         0.01
  YS02001757CaochengTiaoxuchi        5.98      5.98      6.42      0.01         0.01
  
  
  ***************
  Pumping Summary
  ***************
  
  ---------------------------------------------------------------------------------------------------------
                                                  Min       Avg       Max     Total     Power    % Time Off
                        Percent   Number of      Flow      Flow      Flow    Volume     Usage    Pump Curve
  Pump                 Utilized   Start-Ups       LPS       LPS       LPS  10^6 ltr     Kw-hr    Low   High
  ---------------------------------------------------------------------------------------------------------
  CC-Pump-1               74.47           1      0.00    161.64    200.00     3.420      3.62    0.0    0.0
  CC-Pump-2               44.68           3      0.00    122.74    200.00     1.800      2.44    0.0    0.0
  JK-Pump-1               70.21           4      0.00    245.56    300.00     4.962     61.02    0.0    0.0
  JK-Pump-2               61.70           3      0.00    538.74    683.00     9.483    105.51    0.0   98.2
  XR-Pump-1              100.00           1      0.00     95.00     95.00     2.679     21.06    0.0    0.0
  XR-Pump-2              100.00           1      0.00     94.48     95.00     2.622     19.80    0.0    0.0
  XR-Pump-3               95.74           2      0.00     94.30     95.00     2.508     17.29    0.0    0.0
  XR-Pump-4               95.74           2      0.00     94.30     95.00     2.508     17.29    0.0    0.0
  
  
  ***************************
  Link Pollutant Load Summary
  ***************************
  
  ------------------------------------------------------------------------------------------
                                 COD            SS            TN            TP         NH4-N
  Link                            kg            kg            kg            kg            kg
  ------------------------------------------------------------------------------------------
  WS02003066WSF200          1476.744      2887.803        34.056         2.765        17.303
  WS02006287WS02006284       662.646      1308.482        17.243         1.527         9.012
  WS02006284WS02006280       663.101      1309.192        17.290         1.533         9.041
  WS02006280WS02006229       663.186      1309.461        17.288         1.533         9.041
  WS02006229WS02006228      1462.893      2857.153        33.460         2.689        16.951
  WS02006256WS02006235       288.854       551.047         6.199         0.466         3.090
  WS02006253WS02006251       126.986       257.531         2.658         0.191         1.293
  WS02006252WS02006251       583.646      1140.443        11.172         0.768         5.387
  WS02006251WS02006249       703.687      1384.729        13.728         0.955         6.637
  WS02006249WS02006248       547.870      1072.145        10.725         0.746         5.191
  WS02006248WS02006247       552.929      1081.816        10.847         0.757         5.255
  WS02006247WS02006245       551.362      1078.036        10.827         0.756         5.248
  WS02006245WS02006243       549.980      1074.712        10.811         0.755         5.242
  WS02006243WS02006242       548.511      1070.979        10.796         0.756         5.237
  WS02006242WS02006240       546.903      1066.972        10.774         0.755         5.229
  WS02006240WS02006239       546.384      1065.422        10.768         0.755         5.226
  WS02006239WS02006238       546.510      1065.417        10.769         0.755         5.228
  WS02006238WS02006235       546.123      1064.516        10.754         0.754         5.219
  WS02006235WS02006234       806.475      1560.959        16.343         1.172         8.001
  WS02006234WS02006232       809.398      1566.820        16.420         1.179         8.042
  WS02006232WS02006231       812.497      1573.103        16.500         1.186         8.084
  WS02006231WS02006230       816.017      1580.372        16.585         1.194         8.128
  WS02006230WS02006229       820.821      1590.327        16.689         1.203         8.181
  WS02006228WS02006109      1462.405      2856.308        33.443         2.688        16.942
  WS02006116WS02004401      1492.926      2915.254        34.569         2.811        17.581
  WS02006115WS02006116      1494.483      2917.861        34.626         2.816        17.613
  WS02006113WS02006111      1469.447      2867.771        34.201         2.784        17.419
  WS02006112WS02006115      1495.890      2920.285        34.679         2.822        17.642
  WS02006111WS02006112      1468.586      2866.031        34.175         2.782        17.406
  WS02006110WS02006113      1469.789      2868.188        34.218         2.786        17.429
  WS02006109WS02006110      1470.509      2869.250        34.251         2.789        17.448
  WS02004411WS02004412      1481.148      2895.488        34.211         2.780        17.390
  WS02004401WS02004402      1491.492      2912.858        34.514         2.805        17.550
  WS02004413WS02003067      1477.957      2889.941        34.091         2.768        17.322
  WS02004412WS02004413      1479.336      2892.338        34.149         2.774        17.355
  WS02004410WS02004411      1482.698      2898.168        34.264         2.785        17.419
  WS02004409WS02004410      1484.123      2900.617        34.315         2.790        17.447
  WS02004407WS02004409      1485.470      2902.892        34.362         2.794        17.473
  WS02004406WS02004407      1485.935      2903.583        34.378         2.796        17.482
  WS02004405WS02004406      1487.670      2906.474        34.451         2.803        17.523
  WS02004404WS02004405      1489.285      2909.173        34.492         2.806        17.544
  WS02004403WS02004404      1488.928      2908.630        34.414         2.795        17.493
  WS02004402WS02004403      1490.096      2910.572        34.460         2.800        17.520
  WS02004139WS02001211      1295.133      2246.923        87.422        10.342        52.953
  WS02004138WS02004139      1300.486      2256.161        87.772        10.383        53.163
  WS02003067WS02003066      1476.929      2888.121        34.063         2.766        17.307
  WS02001213WS02003059      1330.126      2301.467        91.136        10.812        55.291
  WS02001212WS02001213      1338.067      2314.981        91.703        10.880        55.636
  WS02001211WS02001212      1340.136      2318.374        91.879        10.902        55.745
  WS02003072WS02003073      2906.579      5347.282       135.257        14.844        78.906
  WS02003069WS02003072      2911.784      5355.781       135.692        14.897        79.176
  WS02003060WS02003069      2914.570      5360.674       135.816        14.910        79.247
  WS02003059WS02003060      1327.550      2296.917        90.994        10.796        55.207
  HS02004901HS02004770        31.242        62.187         0.612         0.047         0.291
  HS02004876HS02004881       101.414       206.328         2.154         0.154         1.046
  HS02004870HS02004876        77.888       158.595         1.700         0.122         0.826
  HS02004842HS02004848        14.996        29.644         0.314         0.022         0.147
  HS02004837HS02004842        19.708        37.151         0.788         0.082         0.444
  HS02004830HS02004837       101.807       187.057         5.289         0.600         3.141
  HS02004824HS02004830       102.662       188.506         5.364         0.610         3.188
  HS02004817HS02004824       158.469       303.822         6.498         0.682         3.738
  HS02004770HS02004777       119.650       241.820         2.495         0.175         1.169
  HS02004799HS02004480       374.828       742.456         8.578         0.702         4.270
  HS02004792HS02004799       343.089       676.953         8.002         0.666         3.998
  HS02004788HS02004792       180.018       356.947         4.687         0.402         2.399
  HS02004785HS02004788       121.031       244.028         2.637         0.193         1.259
  HS02004777HS02004785       120.352       242.949         2.575         0.185         1.220
  HS02004480HS02004478       464.820       922.695        10.233         0.827         5.069
  HS02004479HS02004480        93.772       186.479         1.955         0.161         0.984
  HS02004862HS02004870        60.204       121.271         1.340         0.100         0.653
  HS02004848HS02004852        26.761        53.672         0.548         0.038         0.256
  HS02004856HS02004862        41.868        85.059         0.850         0.058         0.403
  HS02004852HS02004856        26.785        53.715         0.548         0.038         0.257
  HS02004802HS02004478       198.964       387.630         7.079         0.709         3.985
  HS02004478WS02006287       662.730      1308.527        17.259         1.529         9.023
  HS02004817HS02004807       157.290       302.062         6.359         0.664         3.650
  HS02004807HS02004802       198.930       387.533         7.104         0.712         4.002
  YS02001759YS02001757       617.860      1192.671        12.087         0.856         5.896
  YS02001762YS02001759       347.169       667.249         7.036         0.501         3.454
  YS02001765YS02001762       347.773       669.737         7.058         0.504         3.467
  YS02001770YS02001767       353.382       684.360         7.029         0.492         3.430
  YS02001774YS02001770       807.150      1608.724        15.769         1.076         7.656
  YS02001779YS02001774       806.517      1607.629        15.830         1.086         7.700
  YS02001649YS02001757       687.193      1329.056        13.651         0.943         6.599
  YS02001767YS02001765       349.863       675.207         7.102         0.507         3.489
  YS02006561YS02001783      1600.725      3069.939        33.131         2.427        16.340
  YS02001783YS02001784      1600.632      3069.815        33.127         2.426        16.337
  YS02001784YS02001785      1608.041      3081.742        33.840         2.515        16.783
  YS02001788YS02001790      1608.657      3082.782        33.911         2.525        16.828
  YS02001790YS02001791      1609.760      3084.624        34.012         2.537        16.892
  YS02001791YS02001793      1609.626      3084.366        34.008         2.537        16.889
  YS02001910YS02001907       952.108      1849.857        20.354         1.453        10.123
  YS02001786YS02001788      1608.278      3082.167        33.868         2.519        16.801
  YS02001915YS02001910       951.566      1848.762        20.305         1.446        10.092
  YS02001918YS02001915       473.263       888.241        10.551         0.857         5.397
  YS02001923YS02001920       447.709       844.308         8.518         0.610         4.142
  YS02001926YS02001923       444.570       838.593         8.396         0.598         4.072
  YS02001929YS02001926       441.883       833.795         8.299         0.588         4.018
  YS02001920YS02001918       468.798       878.804        10.455         0.851         5.349
  YS02001629YS02163301       210.559       398.280         4.144         0.295         1.982
  YS02001619YS02001622       451.043       868.483         9.084         0.615         4.291
  YS02001622YS02001625       450.711       868.044         9.072         0.614         4.286
  YS02001625YS02001629       204.916       387.247         4.043         0.287         1.932
  YS02163301YS02001633       216.298       409.530         4.243         0.303         2.032
  YS02163601YS02164001       716.102      1349.848        13.903         1.022         6.718
  YS02164001YS02001641       716.777      1351.068        13.903         1.021         6.716
  YS02001641YS02001644       719.197      1355.445        13.938         1.024         6.732
  YS02001647YS02001649       861.885      1656.957        17.283         1.217         8.289
  YS02006553YS02006556       810.086      1516.205        17.530         1.317         8.770
  YS02006556YS02006558       810.651      1517.285        17.498         1.312         8.747
  YSB6556YSB1171              54.544       108.518         1.086         0.087         0.541
  YS02001907YS02006553       809.872      1515.761        17.574         1.324         8.801
  YS02006558YS02006561      1600.665      3069.790        33.131         2.426        16.340
  YS02001633YS02163601       716.641      1350.728        13.879         1.017         6.700
  YS02001644YS02001647       869.577      1671.921        17.399         1.226         8.343
  YS02001745YS02001748       597.866      1178.524        11.860         0.761         5.723
  YS02001748YS02001751       597.382      1177.735        11.870         0.763         5.732
  YS02001751YS02001754       596.733      1176.695        11.860         0.763         5.728
  YS02001754YS02001757       597.919      1178.591        12.029         0.786         5.837
  YS02001882YS02001884         4.115         7.439         0.076         0.006         0.037
  YS02001884YS02001887         8.401        15.442         0.155         0.012         0.076
  YS02001890YS02001895       827.205      1598.405        15.724         1.198         7.700
  YS02001895YS02001898       827.063      1598.265        15.717         1.198         7.696
  YS02001898YS02001901       826.882      1597.911        15.713         1.197         7.694
  YS02001901YS02001904       826.880      1597.952        15.731         1.200         7.706
  YS02001904YS02001907       827.217      1598.431        15.790         1.207         7.744
  YS02001887YS02001890      1075.854      2094.795        20.308         1.549         9.939
  YS02001652YS02001649       544.896      1055.219        10.861         0.793         5.129
  YS02001655YS02001652       545.413      1056.071        10.876         0.794         5.137
  YS02001658YS02001655       544.980      1055.412        10.792         0.783         5.081
  YS02001661YS02001658       545.318      1055.963        10.800         0.783         5.085
  YS02001664YS02001661       556.551      1073.568        11.083         0.803         5.215
  YSB1154YSB6556              54.069       107.775         1.038         0.081         0.511
  YSB1174YSB1171              37.704        75.533         0.747         0.059         0.369
  YSB1171HS02004479           93.613       186.167         1.960         0.162         0.989
  HS02004881HS02006253       114.086       232.717         2.389         0.170         1.159
  YS02001793JiankangQianchi      1610.026      3085.015        34.022         2.538        16.897
  YS02001757CaochengTiaoxuchi       895.282      1720.980        17.623         1.212         8.525
  WSF200WS02003060          1476.100      2886.681        34.041         2.764        17.296
  1                         2912.373      5355.221       136.222        14.971        79.528
  CC-Pump-1                  378.185       737.880         7.253         0.499         3.498
  CC-Pump-2                  205.231       402.053         3.914         0.269         1.887
  JK-Pump-1                  451.317       871.894         9.375         0.695         4.639
  JK-Pump-2                 1004.613      1948.341        20.592         1.515        10.153
  XR-Pump-1                  349.140       602.549        24.229         2.881        14.719
  XR-Pump-2                  335.508       580.737        22.920         2.718        13.901
  XR-Pump-3                  309.544       539.195        20.429         2.406        12.344
  XR-Pump-4                  309.544       539.195        20.429         2.406        12.344
  

  Analysis begun on:  Tue Jul 13 21:29:32 2021
  Analysis ended on:  Tue Jul 13 21:29:35 2021
  Total elapsed time: 00:00:03