
  EPA STORM WATER MANAGEMENT MODEL - VERSION 5.1 (Build 5.3.0.dev0)
  --------------------------------------------------------------

  WARNING 04: minimum elevation drop used for Conduit WS02004404WS02004405
  WARNING 03: negative offset ignored for Link YS02001904YS02001907
  
  *********************************************************
  NOTE: The summary statistics displayed in this report are
  based on results found at every computational time step,  
  not just on results from each reporting time step.
  *********************************************************
  
  ****************
  Analysis Options
  ****************
  Flow Units ............... LPS
  Process Models:
    Rainfall/Runoff ........ YES
    RDII ................... NO
    Snowmelt ............... NO
    Groundwater ............ NO
    Flow Routing ........... YES
    Ponding Allowed ........ NO
    Water Quality .......... YES
  Infiltration Method ...... HORTON
  Flow Routing Method ...... DYNWAVE
  Surcharge Method ......... EXTRAN
  Starting Date ............ 08/28/2015 08:00:00
  Ending Date .............. 08/28/2015 15:50:00
  Antecedent Dry Days ...... 8.0
  Report Time Step ......... 00:01:00
  Wet Time Step ............ 00:01:00
  Dry Time Step ............ 00:01:00
  Routing Time Step ........ 5.00 sec
  Variable Time Step ....... YES
  Maximum Trials ........... 8
  Number of Threads ........ 4
  Head Tolerance ........... 0.001500 m
  
  
  **************************        Volume         Depth
  Runoff Quantity Continuity     hectare-m            mm
  **************************     ---------       -------
  Total Precipitation ......        10.887        23.836
  Evaporation Loss .........         0.000         0.000
  Infiltration Loss ........         1.411         3.089
  Surface Runoff ...........         8.292        18.155
  Final Storage ............         1.186         2.596
  Continuity Error (%) .....        -0.016
  
  
  **************************           COD            SS            TN            TP         NH4-N
  Runoff Quality Continuity             kg            kg            kg            kg            kg
  **************************    ----------    ----------    ----------    ----------    ----------
  Initial Buildup ..........     41378.656     70582.865      1804.177       168.684      1032.807
  Surface Buildup ..........        41.425        91.431         2.568         0.227         1.442
  Wet Deposition ...........         0.000         0.000         0.000         0.000         0.000
  Sweeping Removal .........         0.000         0.000         0.000         0.000         0.000
  Infiltration Loss ........       164.554       320.127         3.263         0.236         1.574
  BMP Removal ..............         0.000         0.000         0.000         0.000         0.000
  Surface Runoff ...........      9366.500     18283.806       183.722        12.955        88.133
  Remaining Buildup ........     31885.964     52064.522      1619.692       155.715       944.511
  Continuity Error (%) .....         0.007         0.008         0.004         0.003         0.003
  
  
  **************************        Volume        Volume
  Flow Routing Continuity        hectare-m      10^6 ltr
  **************************     ---------     ---------
  Dry Weather Inflow .......         0.616         6.165
  Wet Weather Inflow .......         8.290        82.899
  Groundwater Inflow .......         0.000         0.000
  RDII Inflow ..............         0.000         0.000
  External Inflow ..........         0.102         1.024
  External Outflow .........         2.343        23.430
  Flooding Loss ............         6.173        61.729
  Evaporation Loss .........         0.000         0.000
  Exfiltration Loss ........         0.000         0.000
  Initial Stored Volume ....         0.076         0.761
  Final Stored Volume ......         0.679         6.786
  Continuity Error (%) .....        -1.207
  
  
  **************************           COD            SS            TN            TP         NH4-N
  Quality Routing Continuity            kg            kg            kg            kg            kg
  **************************    ----------    ----------    ----------    ----------    ----------
  Dry Weather Inflow .......      1541.201      2465.922       147.955        18.494        92.472
  Wet Weather Inflow .......      9364.967     18281.067       183.688        12.953        88.116
  Groundwater Inflow .......         0.000         0.000         0.000         0.000         0.000
  RDII Inflow ..............         0.000         0.000         0.000         0.000         0.000
  External Inflow ..........       183.418       293.469        17.608         2.201        11.005
  External Outflow .........      2905.175      5342.652       135.654        14.903        79.178
  Flooding Loss ............      7471.373     14442.480       185.782        15.932        96.692
  Exfiltration Loss ........         0.000         0.000         0.000         0.000         0.000
  Mass Reacted .............         0.000         0.000         0.000         0.000         0.000
  Initial Stored Mass ......         0.000         0.000         0.000         0.000         0.000
  Final Stored Mass ........       597.687      1065.144        24.373         2.520        13.909
  Continuity Error (%) .....         1.040         0.904         0.986         0.872         0.947
  
  
  *************************
  Highest Continuity Errors
  *************************
  Node HS02004842 (7.73%)
  Node JK-storage (-7.48%)
  Node YS02001884 (5.92%)
  Node HS02004817 (1.58%)
  Node YSB1171 (1.38%)
  
  
  ***************************
  Time-Step Critical Elements
  ***************************
  Link WS02006252WS02006251 (66.55%)
  Link WS02006280WS02006229 (11.79%)
  Link WS02006238WS02006235 (5.37%)
  Link WS02004404WS02004405 (3.25%)
  Link YS02001793JiankangQianchi (3.17%)
  
  
  ********************************
  Highest Flow Instability Indexes
  ********************************
  Link YS02163601YS02164001 (37)
  Link WS02006113WS02006111 (35)
  Link YS02001629YS02163301 (35)
  Link YS02163301YS02001633 (35)
  Link YS02001619YS02001622 (34)
  
  
  *************************
  Routing Time Step Summary
  *************************
  Minimum Time Step           :     0.50 sec
  Average Time Step           :     1.10 sec
  Maximum Time Step           :     5.00 sec
  Percent in Steady State     :    -0.00
  Average Iterations per Step :     4.12
  Percent Not Converging      :    17.04
  
  
  ***************************
  Subcatchment Runoff Summary
  ***************************
  
  ------------------------------------------------------------------------------------------------------------------------------
                            Total      Total      Total      Total     Imperv       Perv      Total       Total     Peak  Runoff
                           Precip      Runon       Evap      Infil     Runoff     Runoff     Runoff      Runoff   Runoff   Coeff
  Subcatchment                 mm         mm         mm         mm         mm         mm         mm    10^6 ltr      LPS
  ------------------------------------------------------------------------------------------------------------------------------
  sub0                      23.84       0.00       0.00       0.77      22.12       0.90      23.02        0.02     5.06   0.966
  sub1                      23.84       0.00       0.00       1.33      21.12       1.29      22.41        0.15    33.98   0.940
  sub2                      23.84       0.00       0.00       5.60      14.93       3.22      18.15        0.17    32.49   0.761
  sub3                      23.84       0.00       0.00       5.94      14.89       2.88      17.77        0.40    70.76   0.745
  sub4                      23.84       0.00       0.00       1.46      20.95       1.16      22.11        0.46    81.55   0.928
  sub5                      23.84       0.00       0.00       0.82      22.07       0.85      22.92        0.26    59.56   0.962
  sub7                      23.84       0.00       0.00       1.03      21.63       1.11      22.74        0.08    19.22   0.954
  sub8                      23.84       0.00       0.00       1.05      21.62       1.10      22.72        0.15    35.26   0.953
  sub9                      23.84       0.00       0.00       1.05      21.62       1.10      22.71        0.11    26.33   0.953
  sub10                     23.84       0.00       0.00       0.94      21.84       0.97      22.81        0.25    58.74   0.957
  sub11                     23.84       0.00       0.00       0.92      21.86       0.99      22.85        0.27    65.28   0.959
  sub12                     23.84       0.00       0.00       1.50      20.69       1.60      22.29        0.19    51.10   0.935
  sub14                     23.84       0.00       0.00       1.05      21.61       1.09      22.71        0.22    51.81   0.953
  sub15                     23.84       0.00       0.00       4.05      16.62       3.10      19.72        0.34    74.01   0.827
  sub16                     23.84       0.00       0.00       4.23      15.93       3.63      19.56        0.20    48.29   0.821
  sub17                     23.84       0.00       0.00       4.13      16.17       3.50      19.67        0.17    39.49   0.825
  sub22                     23.84       0.00       0.00       6.08      13.55       4.17      17.72        1.12   235.47   0.743
  sub23                     23.84       0.00       0.00       5.01      14.97       3.81      18.78        0.90   197.86   0.788
  sub60                     23.84       0.00       0.00       2.13      18.82       0.73      19.55        5.93   667.30   0.820
  sub61                     23.84       0.00       0.00       3.01      18.52       1.04      19.56        6.03   717.95   0.821
  sub62                     23.84       0.00       0.00       1.25      20.31       0.65      20.96        6.44   751.14   0.880
  sub63                     23.84       0.00       0.00       5.57      16.04       1.34      17.38        5.26   638.31   0.729
  sub64                     23.84       0.00       0.00       2.78      18.11       0.79      18.90        5.75   644.78   0.793
  sub65                     23.84       0.00       0.00       2.36      18.46       0.74      19.20        5.90   658.64   0.806
  sub66                     23.84       0.00       0.00       5.92      15.37       0.99      16.36        5.02   574.80   0.686
  sub67                     23.84       0.00       0.00       1.18      20.92       0.73      21.65        6.68   814.16   0.908
  sub68                     23.84       0.00       0.00       2.35      19.35       0.99      20.34        6.25   750.28   0.853
  sub69                     23.84       0.00       0.00       2.36      19.61       1.21      20.83        4.87   655.18   0.874
  sub70                     23.84      21.26       0.00       9.95      28.09       5.22      33.30        7.62   861.91   0.738
  sub71                     23.84       0.00       0.00       1.29      20.01       0.62      20.63        4.87   557.88   0.866
  sub72                     23.84       0.00       0.00       1.26      17.48       0.41      17.89        3.64   352.81   0.750
  1                         23.84      32.43       0.00       1.37      34.56      12.51      47.07       11.06  1042.57   0.837
  2                         23.84       0.00       0.00       3.02       5.81       5.77      11.58        4.63   438.27   0.486
  
  
  ****************************
  Subcatchment Washoff Summary
  ****************************
  
  ------------------------------------------------------------------------------------------
                                 COD            SS            TN            TP         NH4-N
  Subcatchment                    kg            kg            kg            kg            kg
  ------------------------------------------------------------------------------------------
  sub0                         5.447        10.648         0.101         0.009         0.050
  sub1                        23.688        48.042         0.463         0.033         0.225
  sub2                        16.966        34.031         0.358         0.025         0.167
  sub3                        41.902        83.507         0.867         0.061         0.406
  sub4                        55.504       114.752         1.120         0.071         0.542
  sub5                        53.600       106.723         1.016         0.079         0.498
  sub7                        11.854        24.343         0.233         0.016         0.114
  sub8                        17.650        37.231         0.360         0.022         0.174
  sub9                        15.191        31.538         0.304         0.020         0.147
  sub10                       44.044        88.979         0.851         0.062         0.416
  sub11                       42.563        86.978         0.834         0.059         0.406
  sub12                       37.050        74.157         0.712         0.055         0.347
  sub14                       32.601        66.963         0.643         0.044         0.313
  sub15                       47.434        94.407         0.941         0.071         0.448
  sub16                       30.857        61.246         0.608         0.047         0.290
  sub17                       28.315        55.641         0.547         0.044         0.262
  sub22                      161.087       316.749         3.138         0.242         1.488
  sub23                       88.506       179.789         1.886         0.128         0.879
  sub60                      597.605      1177.766        11.858         0.760         5.721
  sub61                      735.660      1436.196        13.939         0.989         6.759
  sub62                      737.985      1463.009        14.530         0.959         7.028
  sub63                      558.710      1076.727        11.142         0.807         5.242
  sub64                      776.597      1477.973        14.527         1.087         6.999
  sub65                      790.465      1509.997        14.865         1.095         7.170
  sub66                      450.962       868.123         9.087         0.615         4.293
  sub67                     1073.899      2091.719        20.029         1.513         9.761
  sub68                      789.681      1552.112        15.327         1.072         7.390
  sub69                      691.072      1362.692        13.304         0.964         6.425
  sub70                     1288.654      2534.730        26.762         1.929        12.763
  sub71                      488.493       980.368         9.974         0.604         4.804
  sub72                      441.504       833.180         8.283         0.587         4.008
  1                         1052.298      2081.048        22.042         1.588        10.427
  2                          118.381       219.864         3.138         0.193         1.360
  ------------------------------------------------------------------------------------------
  System                   11346.226     22181.229       223.788        15.848       107.320
  
  
  ******************
  Node Depth Summary
  ******************
  
  ---------------------------------------------------------------------------------
                                 Average  Maximum  Maximum  Time of Max    Reported
                                   Depth    Depth      HGL   Occurrence   Max Depth
  Node                 Type       Meters   Meters   Meters  days hr:min      Meters
  ---------------------------------------------------------------------------------
  WS02001211           JUNCTION     0.79     0.86     5.69     0  01:43        0.86
  WS02001212           JUNCTION     0.50     0.59     5.65     0  01:42        0.59
  WS02001213           JUNCTION     0.74     0.87     5.63     0  01:41        0.87
  WS02003069           JUNCTION     0.55     0.74     5.32     0  01:43        0.74
  WS02003072           JUNCTION     0.61     0.78     5.15     0  01:41        0.78
  WS02003073           JUNCTION     0.37     0.49     4.55     0  01:42        0.49
  WS02003060           JUNCTION     0.49     0.65     5.58     0  01:40        0.65
  WS02003066           JUNCTION     0.27     0.40     5.95     0  01:35        0.40
  WS02003059           JUNCTION     0.79     0.92     5.61     0  01:43        0.92
  WS02003067           JUNCTION     0.65     0.84     6.16     0  01:35        0.84
  WS02004401           JUNCTION     0.80     1.46     7.46     0  01:32        1.29
  WS02004402           JUNCTION     0.83     1.41     7.37     0  01:32        1.27
  WS02004403           JUNCTION     0.84     1.37     7.30     0  01:32        1.24
  WS02004404           JUNCTION     0.91     1.39     7.24     0  01:32        1.28
  WS02004406           JUNCTION     0.90     1.25     7.08     0  01:32        1.18
  WS02004409           JUNCTION     0.61     1.04     6.81     0  01:35        1.02
  WS02004410           JUNCTION     0.62     1.01     6.73     0  01:35        1.00
  WS02004411           JUNCTION     0.63     0.97     6.65     0  01:35        0.97
  WS02004412           JUNCTION     0.64     0.94     6.58     0  01:35        0.93
  WS02004413           JUNCTION     0.79     1.05     6.52     0  01:35        1.04
  WS02004405           JUNCTION     0.90     1.36     7.21     0  01:32        1.24
  WS02006109           JUNCTION     0.92     1.91     8.53     0  01:33        1.86
  WS02006110           JUNCTION     0.88     1.79     8.37     0  01:32        1.63
  WS02006111           JUNCTION     0.32     1.28     7.98     0  01:32        1.00
  WS02006112           JUNCTION     1.00     1.90     7.78     0  01:32        1.65
  WS02006113           JUNCTION     0.44     1.43     8.32     0  01:32        1.07
  WS02006115           JUNCTION     0.71     1.53     7.67     0  01:32        1.29
  WS02006116           JUNCTION     0.79     1.53     7.57     0  01:32        1.32
  WS02006230           JUNCTION     0.98     2.14     8.88     0  01:33        2.11
  WS02006231           JUNCTION     0.71     1.74     8.87     0  01:33        1.72
  WS02006232           JUNCTION     0.86     1.81     8.85     0  01:34        1.80
  WS02006234           JUNCTION     0.81     1.68     8.84     0  01:34        1.66
  WS02006235           JUNCTION     0.85     1.67     8.84     0  01:33        1.64
  WS02006238           JUNCTION     0.88     1.69     8.83     0  01:34        1.67
  WS02006240           JUNCTION     0.78     1.50     8.80     0  01:34        1.47
  WS02006242           JUNCTION     0.83     1.51     8.77     0  01:34        1.49
  WS02006243           JUNCTION     0.72     1.33     8.75     0  01:33        1.31
  WS02006245           JUNCTION     0.69     1.24     8.73     0  01:34        1.23
  WS02006247           JUNCTION     0.70     1.21     8.71     0  01:34        1.20
  WS02006248           JUNCTION     0.63     1.10     8.69     0  01:32        1.10
  WS02006249           JUNCTION     0.65     1.09     8.69     0  01:32        1.09
  WS02006239           JUNCTION     0.84     1.61     8.82     0  01:34        1.59
  WS02006251           JUNCTION     0.63     1.96     9.63     0  01:32        1.23
  WS02006252           JUNCTION     0.39     1.50     9.74     0  01:32        0.76
  WS02006253           JUNCTION     0.66     1.94     9.58     0  01:32        1.34
  WS02006256           JUNCTION     1.88     2.35     9.28     0  00:00        2.35
  WS02004138           JUNCTION     0.19     0.20     7.45     0  00:00        0.19
  WS02004139           JUNCTION     0.73     0.80     5.71     0  01:42        0.80
  WS02004407           JUNCTION     0.27     0.42     6.74     0  01:35        0.42
  WS02006228           JUNCTION     0.96     2.11     8.76     0  01:33        2.08
  WS02006229           JUNCTION     0.95     2.21     8.90     0  01:33        2.17
  WS02006280           JUNCTION     0.08     0.51     8.78     0  01:33        0.50
  WS02006284           JUNCTION     0.39     0.72     9.12     0  01:34        0.72
  WS02006287           JUNCTION     0.12     0.46     9.42     0  01:34        0.46
  WSF200               JUNCTION     0.27     0.45     5.69     0  01:36        0.45
  HS02004901           JUNCTION     0.14     0.43    10.25     0  01:33        0.43
  HS02004881           JUNCTION     0.01     0.09     9.12     0  01:32        0.06
  HS02004876           JUNCTION     0.05     0.19     9.22     0  01:32        0.19
  HS02004870           JUNCTION     0.02     0.11     9.40     0  01:35        0.11
  HS02004862           JUNCTION     0.03     0.13     9.51     0  01:35        0.13
  HS02004856           JUNCTION     0.08     0.17     9.59     0  01:35        0.17
  HS02004852           JUNCTION     0.02     0.10     9.61     0  01:35        0.10
  HS02004848           JUNCTION     0.02     0.08     9.68     0  01:36        0.08
  HS02004842           JUNCTION     0.34     0.41     9.68     0  01:35        0.41
  HS02004837           JUNCTION     0.03     0.10     9.68     0  01:35        0.10
  HS02004830           JUNCTION     0.05     0.15     9.62     0  01:35        0.15
  HS02004824           JUNCTION     0.03     0.20     9.61     0  01:35        0.20
  HS02004817           JUNCTION     0.46     0.77     9.61     0  01:34        0.77
  HS02004807           JUNCTION     0.14     0.44     9.61     0  01:35        0.44
  HS02004802           JUNCTION     0.18     0.47     9.60     0  01:34        0.47
  HS02004799           JUNCTION     0.14     0.55     9.76     0  01:33        0.55
  HS02004792           JUNCTION     0.05     0.27     9.79     0  01:33        0.27
  HS02004788           JUNCTION     0.04     0.19    10.09     0  01:34        0.19
  HS02004785           JUNCTION     0.06     0.29    10.19     0  01:33        0.29
  HS02004777           JUNCTION     0.16     0.44    10.24     0  01:33        0.44
  HS02004770           JUNCTION     0.13     0.42    10.25     0  01:33        0.42
  HS02004480           JUNCTION     0.10     0.46     9.70     0  01:33        0.46
  HS02004479           JUNCTION     0.14     0.49     9.70     0  01:34        0.49
  HS02004478           JUNCTION     0.08     0.35     9.58     0  01:34        0.35
  YS02001745           JUNCTION     0.82     1.29     8.81     0  01:29        1.05
  YS02001748           JUNCTION     1.23     1.86     8.94     0  01:28        1.46
  YS02001751           JUNCTION     1.42     1.77     8.65     0  01:29        1.64
  YS02001754           JUNCTION     1.67     1.94     8.54     0  01:29        1.88
  YS02001762           JUNCTION     1.87     2.08     8.48     0  02:35        2.07
  YS02001765           JUNCTION     1.82     2.02     8.47     0  02:35        2.01
  YS02001767           JUNCTION     1.78     1.98     8.46     0  02:35        1.97
  YS02001770           JUNCTION     1.78     1.95     8.44     0  02:04        1.95
  YS02001774           JUNCTION     1.84     2.05     8.47     0  01:26        2.00
  YS02001779           JUNCTION     1.58     1.68     8.37     0  01:26        1.68
  YS02001882           JUNCTION     0.75     1.70     8.41     0  01:32        1.64
  YS02001884           JUNCTION     0.85     1.78     8.40     0  01:32        1.74
  YS02001759           JUNCTION     1.90     2.12     8.48     0  02:35        2.11
  YS02001887           JUNCTION     0.93     1.84     8.38     0  01:32        1.82
  YS02001890           JUNCTION     0.95     1.81     8.32     0  01:32        1.81
  YS02001898           JUNCTION     0.72     1.70     8.44     0  01:32        1.56
  YS02001901           JUNCTION     0.84     1.81     8.42     0  01:32        1.67
  YS02001904           JUNCTION     0.81     1.73     8.36     0  01:32        1.63
  YS02001907           JUNCTION     1.14     1.96     8.25     0  01:32        1.96
  YS02001910           JUNCTION     0.94     1.99     8.50     0  01:33        1.88
  YS02001915           JUNCTION     0.74     1.93     8.64     0  01:33        1.77
  YS02001918           JUNCTION     0.48     1.81     8.88     0  01:33        1.59
  YS02001619           JUNCTION     1.36     1.61     8.54     0  01:27        1.53
  YS02001629           JUNCTION     1.72     1.85     8.40     0  01:27        1.85
  YS02001641           JUNCTION     1.81     1.96     8.39     0  01:29        1.93
  YS02001644           JUNCTION     1.81     1.92     8.35     0  01:29        1.92
  YS02001652           JUNCTION     1.68     2.04     8.64     0  01:29        1.90
  YS02001655           JUNCTION     1.44     1.97     8.82     0  01:29        1.69
  YS02001920           JUNCTION     0.58     2.10     9.11     0  01:33        1.67
  YS02001923           JUNCTION     0.40     2.01     9.27     0  01:33        1.44
  YS02001926           JUNCTION     0.42     1.90     9.35     0  01:33        1.27
  YS02001929           JUNCTION     0.27     1.78     9.47     0  01:33        1.05
  YS02001658           JUNCTION     1.17     1.86     9.00     0  04:28        1.43
  YS02001661           JUNCTION     0.92     1.88     9.28     0  04:28        1.37
  YS02001664           JUNCTION     0.42     0.68     8.61     0  01:30        0.68
  YS02001622           JUNCTION     1.38     1.62     8.52     0  01:27        1.54
  YS02001633           JUNCTION     1.81     1.98     8.43     0  01:29        1.94
  YS02001649           JUNCTION     1.87     2.05     8.44     0  01:29        2.05
  YS02001757           JUNCTION     2.00     2.21     8.47     0  02:34        2.21
  YS02001895           JUNCTION     0.71     1.66     8.41     0  01:32        1.56
  YS02001625           JUNCTION     1.67     1.78     8.38     0  01:27        1.78
  YS02163301           JUNCTION     1.75     1.90     8.42     0  01:29        1.89
  YS02163601           JUNCTION     1.86     2.03     8.43     0  01:29        1.98
  YS02164001           JUNCTION     1.80     1.96     8.42     0  01:29        1.91
  YS02001647           JUNCTION     1.65     1.80     8.41     0  04:39        1.79
  YSB1154              JUNCTION     0.28     0.65     9.70     0  01:34        0.65
  YSB6556              JUNCTION     0.17     0.53     9.70     0  01:33        0.53
  YSB1174              JUNCTION     0.23     0.59     9.70     0  01:33        0.59
  YSB1171              JUNCTION     0.43     0.80     9.70     0  01:34        0.80
  YS02006553           JUNCTION     1.14     1.98     8.27     0  01:32        1.97
  YS02006561           JUNCTION     0.45     1.57     8.23     0  01:32        1.09
  YS02006556           JUNCTION     1.11     1.97     8.28     0  01:32        1.94
  YS02006558           JUNCTION     1.15     2.03     8.30     0  01:32        1.98
  YS02001783           JUNCTION     0.71     1.78     7.92     0  01:32        1.48
  YS02001784           JUNCTION     0.71     1.73     7.80     0  01:32        1.42
  YS02001786           JUNCTION     0.63     1.63     7.66     0  01:32        1.26
  YS02001788           JUNCTION     0.55     1.72     7.70     0  01:32        1.13
  YS02001790           JUNCTION     0.69     1.96     7.60     0  05:06        1.29
  YS02001791           JUNCTION     0.65     1.89     7.36     0  05:05        1.28
  YS02001793           JUNCTION     0.91     2.35     7.19     0  05:04        1.80
  WSC                  OUTFALL      0.37     0.49     1.16     0  01:43        0.49
  JK-storage           STORAGE      3.45     5.80     6.60     0  01:32        5.80
  CC-storage           STORAGE      1.25     1.47     8.47     0  02:31        1.47
  XR-storage           STORAGE      7.31     7.72     5.72     0  01:47        7.72
  
  
  *******************
  Node Inflow Summary
  *******************
  
  -------------------------------------------------------------------------------------------------
                                  Maximum  Maximum                  Lateral       Total        Flow
                                  Lateral    Total  Time of Max      Inflow      Inflow     Balance
                                   Inflow   Inflow   Occurrence      Volume      Volume       Error
  Node                 Type           LPS      LPS  days hr:min    10^6 ltr    10^6 ltr     Percent
  -------------------------------------------------------------------------------------------------
  WS02001211           JUNCTION      7.35   390.11     0  03:15       0.207        10.4       0.397
  WS02001212           JUNCTION      0.00   392.86     0  03:15           0        10.4       0.247
  WS02001213           JUNCTION      0.00   395.23     0  03:15           0        10.4       0.287
  WS02003069           JUNCTION      0.32  1379.01     0  01:42     0.00902        23.5       0.172
  WS02003072           JUNCTION      0.00  1379.14     0  01:43           0        23.5       0.200
  WS02003073           JUNCTION      1.82  1380.92     0  01:42      0.0514        23.5       0.234
  WS02003060           JUNCTION     16.53  1379.30     0  01:42       0.466        23.6       0.160
  WS02003066           JUNCTION      0.00  1000.48     0  01:35           0        12.8       0.044
  WS02003059           JUNCTION      0.00   398.04     0  03:14           0        10.3       0.409
  WS02003067           JUNCTION      0.00   996.36     0  01:35           0        12.8       0.086
  WS02004401           JUNCTION      0.00  1015.93     0  01:34           0        13.1       0.193
  WS02004402           JUNCTION      0.00  1016.33     0  01:34           0        13.1       0.179
  WS02004403           JUNCTION      0.00  1017.24     0  01:34           0          13       0.160
  WS02004404           JUNCTION      0.16  1017.66     0  01:34     0.00457          13       0.117
  WS02004406           JUNCTION      0.00  1018.65     0  01:34           0          13       0.284
  WS02004409           JUNCTION      0.00  1016.30     0  01:34           0          13       0.169
  WS02004410           JUNCTION      0.00  1008.67     0  01:34           0        12.9       0.185
  WS02004411           JUNCTION      0.00   993.54     0  01:36           0        12.9       0.186
  WS02004412           JUNCTION      0.00   993.92     0  01:36           0        12.9       0.195
  WS02004413           JUNCTION      0.00   994.80     0  01:35           0        12.9       0.278
  WS02004405           JUNCTION      0.04  1018.70     0  01:34     0.00107          13       0.174
  WS02006109           JUNCTION      1.23   978.10     0  01:34      0.0347        13.1       0.136
  WS02006110           JUNCTION      0.00   978.00     0  01:34           0        13.1       0.167
  WS02006111           JUNCTION      0.00   977.70     0  01:34           0          13       0.045
  WS02006112           JUNCTION     39.49  1016.50     0  01:34       0.169        13.2       0.259
  WS02006113           JUNCTION      0.00   977.90     0  01:34           0          13       0.097
  WS02006115           JUNCTION      0.00  1016.07     0  01:34           0        13.1       0.193
  WS02006116           JUNCTION      0.00  1016.08     0  01:34           0        13.1       0.168
  WS02006230           JUNCTION     10.28   532.63     0  05:52        0.29        8.66       0.207
  WS02006231           JUNCTION      0.00   522.44     0  05:52           0        8.36       0.167
  WS02006232           JUNCTION      0.00   522.22     0  06:25           0        8.35       0.220
  WS02006234           JUNCTION      0.00   522.82     0  06:25           0        8.34       0.137
  WS02006235           JUNCTION      0.00   523.59     0  06:25           0        8.49       0.127
  WS02006238           JUNCTION      0.00   418.86     0  06:30           0        4.92       0.170
  WS02006240           JUNCTION      0.00   416.77     0  06:30           0        4.89       0.331
  WS02006242           JUNCTION      0.00   416.52     0  06:30           0        4.89       0.392
  WS02006243           JUNCTION      0.00   416.25     0  06:30           0        4.88       0.294
  WS02006245           JUNCTION      0.00   416.44     0  06:30           0        4.88       0.321
  WS02006247           JUNCTION      0.00   416.55     0  06:30           0        4.89       0.218
  WS02006248           JUNCTION      0.00   416.70     0  06:30           0        4.93       0.129
  WS02006249           JUNCTION      0.00   499.11     0  02:50           0         5.9       0.236
  WS02006239           JUNCTION      0.00   417.99     0  06:30           0         4.9       0.215
  WS02006251           JUNCTION      0.08   499.06     0  02:50     0.00217        5.95       0.177
  WS02006252           JUNCTION      0.00   400.00     0  02:40           0        4.98       0.010
  WS02006253           JUNCTION      5.06   289.19     0  01:32      0.0186       0.971       0.552
  WS02006256           JUNCTION      0.00   983.00     0  01:40           0        14.3      -0.003
  WS02004138           JUNCTION      0.00   380.00     0  00:00           0        10.3       0.061
  WS02004139           JUNCTION      0.32   395.85     0  00:00     0.00905        10.3       0.452
  WS02004407           JUNCTION      0.00  1019.45     0  01:34           0          13       0.075
  WS02006228           JUNCTION      0.00   976.73     0  01:34           0        13.1       0.122
  WS02006229           JUNCTION      0.00  1057.17     0  01:32           0        13.1       0.120
  WS02006280           JUNCTION      0.00   937.79     0  01:34           0        4.56       0.014
  WS02006284           JUNCTION      0.10   934.65     0  01:35      0.0027        4.56       0.018
  WS02006287           JUNCTION      0.00   934.66     0  01:35           0        4.56       0.019
  WSF200               JUNCTION      0.00  1001.26     0  01:36           0        12.8       0.046
  HS02004901           JUNCTION     48.29    48.29     0  01:31       0.205       0.205       0.867
  HS02004881           JUNCTION     19.22   196.54     0  01:33      0.0766       0.897       0.078
  HS02004876           JUNCTION     33.98   176.89     0  01:34       0.149       0.821       0.068
  HS02004870           JUNCTION     35.26   143.34     0  01:34       0.145       0.672       0.017
  HS02004862           JUNCTION     32.69   109.55     0  01:35       0.175       0.527       0.033
  HS02004856           JUNCTION     26.33    76.92     0  01:35       0.109       0.354       0.408
  HS02004852           JUNCTION      0.00    51.63     0  01:36           0       0.245       0.025
  HS02004848           JUNCTION     70.76    70.76     0  01:38         0.4         0.4       0.012
  HS02004842           JUNCTION      0.00    21.86     0  01:49           0       0.168       8.372
  HS02004837           JUNCTION     65.09    82.02     0  01:35       0.431       0.586       0.138
  HS02004830           JUNCTION      0.15    82.12     0  01:35     0.00423       0.576       0.215
  HS02004824           JUNCTION     81.60   164.05     0  01:38       0.463        1.04       0.052
  HS02004817           JUNCTION      0.60   166.61     0  01:39      0.0169        1.05       1.606
  HS02004807           JUNCTION     65.28   225.46     0  01:36       0.265         1.3       0.342
  HS02004802           JUNCTION      0.00   226.44     0  01:37           0         1.3       0.298
  HS02004799           JUNCTION     51.81   605.47     0  01:33       0.216        2.82       0.117
  HS02004792           JUNCTION    235.75   554.35     0  01:33        1.13        2.61       0.015
  HS02004788           JUNCTION     75.68   319.93     0  01:33       0.386        1.48       0.026
  HS02004785           JUNCTION      0.15   244.47     0  01:33     0.00423         1.1       0.047
  HS02004777           JUNCTION      0.03   244.67     0  01:32    0.000846         1.1       0.479
  HS02004770           JUNCTION    197.86   245.55     0  01:32       0.896         1.1       0.279
  HS02004480           JUNCTION      0.00   713.03     0  01:33           0        3.27       0.024
  HS02004479           JUNCTION      0.00   107.71     0  01:33           0       0.464       0.161
  HS02004478           JUNCTION      0.00   934.58     0  01:35           0        4.56       0.007
  YS02001745           JUNCTION    667.30   667.30     0  03:01        5.93        5.93       0.193
  YS02001748           JUNCTION      0.04   667.50     0  03:01     0.00127        5.92       0.381
  YS02001751           JUNCTION      0.01   667.79     0  03:01     0.00031         5.9       0.412
  YS02001754           JUNCTION      0.26   668.66     0  03:01     0.00733        5.88       0.414
  YS02001762           JUNCTION      0.00   368.48     0  01:32           0        2.99       0.716
  YS02001765           JUNCTION      0.00   368.54     0  01:35           0        2.98       0.817
  YS02001767           JUNCTION      0.54   372.15     0  01:26      0.0151        3.01       1.199
  YS02001770           JUNCTION    751.30  1076.91     0  03:01        6.45        8.23       0.377
  YS02001774           JUNCTION      0.00   851.74     0  02:36           0        6.63       0.376
  YS02001779           JUNCTION      0.01   851.70     0  02:36    0.000141         6.6       0.235
  YS02001882           JUNCTION      0.00    36.84     0  01:29           0      0.0661       4.685
  YS02001884           JUNCTION      0.00    64.45     0  01:29           0       0.111       6.297
  YS02001759           JUNCTION    717.99   899.35     0  01:41        6.03        7.21       0.316
  YS02001887           JUNCTION    814.61   815.92     0  01:57        6.69        6.73       0.130
  YS02001890           JUNCTION      0.00   815.79     0  01:57           0        6.68       0.154
  YS02001898           JUNCTION      0.00   597.23     0  01:32           0        5.41       0.044
  YS02001901           JUNCTION      0.00   602.11     0  01:32           0        5.41       0.156
  YS02001904           JUNCTION      0.00   604.18     0  01:32           0         5.4       0.136
  YS02001907           JUNCTION      0.00  1427.97     0  03:01           0          14       0.181
  YS02001910           JUNCTION      0.00   911.29     0  03:01           0         8.6       0.136
  YS02001915           JUNCTION    557.90   911.10     0  03:01        4.87        8.65       0.087
  YS02001918           JUNCTION      0.00   436.71     0  01:32           0        3.81       0.047
  YS02001619           JUNCTION    574.80   574.80     0  03:01        5.02        5.02       0.239
  YS02001629           JUNCTION      0.00   283.09     0  01:26           0        2.09       1.364
  YS02001641           JUNCTION      0.00   456.53     0  01:28           0        6.14       0.344
  YS02001644           JUNCTION    644.82  1924.40     0  03:01        5.75        19.3       0.136
  YS02001652           JUNCTION      0.00   639.59     0  03:01           0        5.22       0.436
  YS02001655           JUNCTION      0.15   639.40     0  03:01     0.00434        5.24       0.490
  YS02001920           JUNCTION      2.87   404.30     0  01:33      0.0809        3.79       0.092
  YS02001923           JUNCTION      0.04   403.12     0  01:33     0.00106        3.69       0.049
  YS02001926           JUNCTION      0.05   463.64     0  01:33     0.00147        3.66       0.075
  YS02001929           JUNCTION    352.81   352.81     0  03:01        3.64        3.65       0.004
  YS02001658           JUNCTION      0.00   638.98     0  03:01           0        5.26       0.467
  YS02001661           JUNCTION      0.00   801.19     0  01:41           0        5.67      -0.096
  YS02001664           JUNCTION    638.31   638.31     0  03:01        5.26        5.67       0.113
  YS02001622           JUNCTION      0.00   574.86     0  03:01           0        5.01       0.634
  YS02001633           JUNCTION    658.84   658.84     0  03:01        5.91        7.08       0.451
  YS02001649           JUNCTION      0.00  1361.61     0  03:01           0        11.2       0.330
  YS02001757           JUNCTION      0.00  2182.79     0  01:41           0        13.5       0.680
  YS02001895           JUNCTION      0.00   593.47     0  01:32           0        5.39       0.132
  YS02001625           JUNCTION      0.00   801.49     0  03:01           0        5.86       0.687
  YS02163301           JUNCTION      0.00   277.02     0  01:26           0        2.09       1.158
  YS02163601           JUNCTION      0.11   459.89     0  01:28      0.0031        6.14       0.489
  YS02164001           JUNCTION      0.00   458.40     0  01:28           0        6.13       0.328
  YS02001647           JUNCTION      0.00   846.72     0  03:19           0        8.79       0.324
  YSB1154              JUNCTION     59.56    59.56     0  01:33        0.26        0.26       0.556
  YSB6556              JUNCTION      0.00    59.44     0  01:33           0       0.261       0.488
  YSB1174              JUNCTION     51.10    51.10     0  01:30       0.195       0.195       0.658
  YSB1171              JUNCTION      0.00   108.25     0  01:32           0       0.462       1.395
  YS02006553           JUNCTION      0.00   730.69     0  04:01           0        7.58       0.214
  YS02006561           JUNCTION      0.00  1062.77     0  01:32           0        13.8       0.007
  YS02006556           JUNCTION      0.00   730.50     0  04:02           0        7.59       0.159
  YS02006558           JUNCTION    751.16  1062.25     0  01:32        6.28        13.8       0.040
  YS02001783           JUNCTION      0.00  1024.12     0  01:31           0        13.8       0.021
  YS02001784           JUNCTION      1.06  1025.26     0  01:31      0.0299        13.8       0.030
  YS02001786           JUNCTION      0.06  1025.23     0  01:31     0.00159        13.8       0.030
  YS02001788           JUNCTION      0.07  1004.80     0  01:31       0.002        13.8       0.019
  YS02001790           JUNCTION      0.15   984.10     0  02:00     0.00437        13.8       0.014
  YS02001791           JUNCTION      0.00   984.22     0  01:51           0        13.8       0.009
  YS02001793           JUNCTION      0.00   984.36     0  01:51           0        13.8      -0.015
  WSC                  OUTFALL       0.00  1381.86     0  01:43           0        23.4       0.000
  JK-storage           STORAGE       0.00  1024.24     0  01:30           0          14      -6.957
  CC-storage           STORAGE       0.00  2182.40     0  01:41           0        8.74       0.740
  XR-storage           STORAGE    1680.85  1680.85     0  03:01        21.3        21.9      -0.003
  
  
  **********************
  Node Surcharge Summary
  **********************
  
  Surcharging occurs when water rises above the top of the highest conduit.
  ---------------------------------------------------------------------
                                               Max. Height   Min. Depth
                                   Hours       Above Crown    Below Rim
  Node                 Type      Surcharged         Meters       Meters
  ---------------------------------------------------------------------
  WS02004401           JUNCTION        1.83          0.463        1.197
  WS02004402           JUNCTION        1.86          0.414        1.326
  WS02004403           JUNCTION        1.87          0.367        1.663
  WS02004404           JUNCTION        2.12          0.391        2.389
  WS02004406           JUNCTION        1.94          0.249        2.201
  WS02004409           JUNCTION        0.13          0.042        2.318
  WS02004410           JUNCTION        0.01          0.008        2.532
  WS02004413           JUNCTION        0.89          0.050        2.150
  WS02004405           JUNCTION        1.97          0.360        2.440
  WS02006109           JUNCTION        4.68          1.092        0.728
  WS02006110           JUNCTION        3.12          0.876        0.974
  WS02006111           JUNCTION        0.64          0.467        1.403
  WS02006112           JUNCTION        3.37          0.899        0.781
  WS02006113           JUNCTION        0.72          0.626        1.304
  WS02006115           JUNCTION        1.68          0.520        1.730
  WS02006116           JUNCTION        1.74          0.471        1.819
  WS02006230           JUNCTION        2.93          1.057        0.513
  WS02006231           JUNCTION        3.34          1.032        0.498
  WS02006232           JUNCTION        4.89          1.112        0.368
  WS02006234           JUNCTION        4.12          0.963        0.277
  WS02006235           JUNCTION        4.45          0.963        0.327
  WS02006238           JUNCTION        4.57          0.970        0.460
  WS02006240           JUNCTION        4.00          0.794        0.596
  WS02006242           JUNCTION        4.30          0.775        0.045
  WS02006243           JUNCTION        3.72          0.615        0.155
  WS02006245           JUNCTION        3.63          0.530        0.320
  WS02006247           JUNCTION        3.68          0.504        0.256
  WS02006248           JUNCTION        3.38          0.380        0.000
  WS02006249           JUNCTION        3.49          0.390        0.000
  WS02006239           JUNCTION        4.21          0.866        0.424
  WS02006251           JUNCTION        2.14          0.926        0.254
  WS02006252           JUNCTION        3.69          1.100        0.000
  WS02006253           JUNCTION        2.29          0.900        1.580
  WS02006256           JUNCTION        7.06          2.050        0.000
  WS02006228           JUNCTION        4.60          1.280        0.920
  WS02006229           JUNCTION        0.01          0.026        1.044
  HS02004817           JUNCTION        0.46          0.067        1.673
  YS02001745           JUNCTION        0.95          0.293        1.057
  YS02001748           JUNCTION        6.35          0.784        0.406
  YS02001751           JUNCTION        6.36          0.770        0.430
  YS02001754           JUNCTION        6.38          0.886        0.264
  YS02001762           JUNCTION        6.40          1.077        0.073
  YS02001765           JUNCTION        6.40          1.024        0.076
  YS02001767           JUNCTION        6.39          0.975        0.055
  YS02001770           JUNCTION        6.39          0.920        0.000
  YS02001774           JUNCTION        6.40          1.046        0.004
  YS02001779           JUNCTION        6.37          0.680        0.000
  YS02001882           JUNCTION        2.54          0.696        0.134
  YS02001884           JUNCTION        2.56          0.725        0.145
  YS02001759           JUNCTION        6.41          1.116        0.094
  YS02001887           JUNCTION        2.62          0.792        0.158
  YS02001890           JUNCTION        2.64          0.760        0.000
  YS02001898           JUNCTION        2.51          0.674        0.066
  YS02001901           JUNCTION        2.59          0.807        0.063
  YS02001904           JUNCTION        2.57          0.729        0.121
  YS02001907           JUNCTION        3.11          0.950        0.000
  YS02001910           JUNCTION        2.67          0.990        0.110
  YS02001915           JUNCTION        2.54          0.925        0.075
  YS02001918           JUNCTION        2.40          0.810        0.000
  YS02001619           JUNCTION        6.37          0.610        0.000
  YS02001629           JUNCTION        6.37          0.470        0.000
  YS02001641           JUNCTION        6.40          0.958        0.142
  YS02001644           JUNCTION        6.40          0.920        0.000
  YS02001652           JUNCTION        6.38          1.014        0.116
  YS02001655           JUNCTION        6.37          0.971        0.229
  YS02001920           JUNCTION        2.42          1.102        0.038
  YS02001923           JUNCTION        0.01          0.800        0.020
  YS02001926           JUNCTION        0.01          0.900        0.000
  YS02001929           JUNCTION        0.01          0.780        0.000
  YS02001658           JUNCTION        6.35          0.858        0.442
  YS02001661           JUNCTION        1.54          0.808        0.582
  YS02001622           JUNCTION        6.37          0.620        0.000
  YS02001633           JUNCTION        6.40          0.960        0.100
  YS02001649           JUNCTION        6.40          1.050        0.000
  YS02001757           JUNCTION        6.42          1.210        0.000
  YS02001895           JUNCTION        2.53          0.662        0.088
  YS02001625           JUNCTION        6.38          0.780        0.000
  YS02163301           JUNCTION        6.39          0.902        0.128
  YS02163601           JUNCTION        6.40          1.034        0.046
  YS02164001           JUNCTION        6.40          0.965        0.135
  YS02001647           JUNCTION        6.38          0.803        0.097
  YS02006553           JUNCTION        3.18          0.982        0.208
  YS02006561           JUNCTION        2.42          0.775        0.375
  YS02006556           JUNCTION        2.84          0.927        0.423
  YS02006558           JUNCTION        2.81          0.932        0.468
  YS02001783           JUNCTION        2.63          0.983        0.617
  YS02001784           JUNCTION        2.60          0.934        0.556
  YS02001786           JUNCTION        2.52          0.828        0.602
  YS02001788           JUNCTION        2.47          0.920        0.560
  YS02001790           JUNCTION        3.36          1.157        0.000
  YS02001791           JUNCTION        3.45          1.089        0.831
  YS02001793           JUNCTION        3.70          1.354        1.246
  
  
  *********************
  Node Flooding Summary
  *********************
  
  Flooding refers to all water that overflows a node, whether it ponds or not.
  --------------------------------------------------------------------------
                                                             Total   Maximum
                                 Maximum   Time of Max       Flood    Ponded
                        Hours       Rate    Occurrence      Volume     Depth
  Node                 Flooded       LPS   days hr:min    10^6 ltr    Meters
  --------------------------------------------------------------------------
  WS02006248              0.44    150.58      0  01:39       0.139     0.000
  WS02006249              2.20    365.96      0  01:32       1.056     0.000
  WS02006252              0.01     24.12      0  01:32       0.000     0.000
  WS02006256              4.97    835.03      0  01:40      10.575     0.000
  YS02001770              1.11    225.72      0  03:01       0.358     0.000
  YS02001779              4.32    851.44      0  02:36       6.584     0.000
  YS02001890              1.74    299.67      0  01:56       1.275     0.000
  YS02001907              2.27   1197.50      0  03:01       6.358     0.000
  YS02001918              0.01     88.28      0  01:33       0.000     0.000
  YS02001619              0.01     95.60      0  01:27       0.000     0.000
  YS02001629              0.01    229.80      0  01:27       0.002     0.000
  YS02001644              5.60   1924.36      0  03:01      17.919     0.000
  YS02001926              0.01     13.80      0  01:33       0.000     0.000
  YS02001929              0.01    264.47      0  01:33       0.001     0.000
  YS02001622              0.01    104.30      0  01:27       0.000     0.000
  YS02001649              1.25    514.87      0  03:01       1.376     0.000
  YS02001757              0.01      1.03      0  02:35       0.000     0.000
  YS02001625              3.02    801.48      0  03:01       4.633     0.000
  YS02001790              0.01    113.37      0  05:06       0.000     0.000
  JK-storage              0.78    690.27      0  01:32       0.713     0.000
  XR-storage              6.04   1300.69      0  03:01      10.740     0.000
  
  
  **********************
  Storage Volume Summary
  **********************
  
  --------------------------------------------------------------------------------------------------
                         Average     Avg  Evap Exfil       Maximum     Max    Time of Max    Maximum
                          Volume    Pcnt  Pcnt  Pcnt        Volume    Pcnt     Occurrence    Outflow
  Storage Unit           1000 m3    Full  Loss  Loss       1000 m3    Full    days hr:min        LPS
  --------------------------------------------------------------------------------------------------
  JK-storage               0.174      60     0     0         0.291     100       0  01:32     983.00
  CC-storage               3.483      22     0     0         4.105      26       0  02:31     400.00
  XR-storage               0.877      95     0     0         0.926     100       0  01:47     380.00
  
  
  ***********************
  Outfall Loading Summary
  ***********************
  
  ---------------------------------------------------------------------------------------------------------------------------------
                         Flow       Avg       Max       Total         Total         Total         Total         Total         Total
                         Freq      Flow      Flow      Volume           COD            SS            TN            TP         NH4-N
  Outfall Node           Pcnt       LPS       LPS    10^6 ltr            kg            kg            kg            kg            kg
  ---------------------------------------------------------------------------------------------------------------------------------
  WSC                   99.98    869.92   1381.86      23.430      2905.289      5342.860       135.659        14.903        79.181
  ---------------------------------------------------------------------------------------------------------------------------------
  System                99.98    869.92   1381.86      23.430      2905.289      5342.860       135.659        14.903        79.181
  
  
  ********************
  Link Flow Summary
  ********************
  
  -----------------------------------------------------------------------------
                                 Maximum  Time of Max   Maximum    Max/    Max/
                                  |Flow|   Occurrence   |Veloc|    Full    Full
  Link                 Type          LPS  days hr:min     m/sec    Flow   Depth
  -----------------------------------------------------------------------------
  WS02003066WSF200     CONDUIT   1001.26     0  01:36      3.05    0.17    0.33
  WS02006287WS02006284 CONDUIT    934.56     0  01:35      2.63    0.43    0.46
  WS02006284WS02006280 CONDUIT    937.79     0  01:34      2.86    0.39    0.44
  WS02006280WS02006229 CONDUIT    969.00     0  01:34      4.53    0.21    0.75
  WS02006229WS02006228 CONDUIT    976.73     0  01:34      1.94    3.24    1.00
  WS02006256WS02006235 CONDUIT    288.92     0  00:00      4.23    3.06    1.00
  WS02006253WS02006251 CONDUIT    287.29     0  01:32      0.83    0.86    1.00
  WS02006252WS02006251 CONDUIT    404.19     0  05:52      3.22    1.48    1.00
  WS02006251WS02006249 CONDUIT    499.11     0  02:50      1.30    1.44    1.00
  WS02006249WS02006248 CONDUIT    416.70     0  06:30      1.19    2.28    1.00
  WS02006248WS02006247 CONDUIT    416.55     0  06:30      1.16    0.91    1.00
  WS02006247WS02006245 CONDUIT    416.44     0  06:30      1.14    3.30    1.00
  WS02006245WS02006243 CONDUIT    416.25     0  06:30      1.18    1.23    1.00
  WS02006243WS02006242 CONDUIT    416.52     0  06:30      1.08    0.89    1.00
  WS02006242WS02006240 CONDUIT    416.77     0  06:30      1.08    1.66    1.00
  WS02006240WS02006239 CONDUIT    417.99     0  06:30      1.09    1.32    1.00
  WS02006239WS02006238 CONDUIT    418.86     0  06:30      1.09    1.34    1.00
  WS02006238WS02006235 CONDUIT    419.93     0  06:30      1.45    0.94    1.00
  WS02006235WS02006234 CONDUIT    522.82     0  06:25      1.36    5.52    1.00
  WS02006234WS02006232 CONDUIT    522.22     0  06:25      1.39    1.06    1.00
  WS02006232WS02006231 CONDUIT    522.44     0  05:52      1.36    1.09    1.00
  WS02006231WS02006230 CONDUIT    522.36     0  05:52      1.39    7.92    1.00
  WS02006230WS02006229 CONDUIT    533.00     0  05:52      1.38   11.86    1.00
  WS02006228WS02006109 CONDUIT    976.87     0  01:34      1.94    4.27    1.00
  WS02006116WS02004401 CONDUIT   1015.93     0  01:34      1.29    1.40    1.00
  WS02006115WS02006116 CONDUIT   1016.08     0  01:34      1.29    1.30    1.00
  WS02006113WS02006111 CONDUIT    977.70     0  01:34      2.66    1.17    1.00
  WS02006112WS02006115 CONDUIT   1016.07     0  01:34      1.29    0.60    1.00
  WS02006111WS02006112 CONDUIT    977.88     0  01:34      1.95    0.46    1.00
  WS02006110WS02006113 CONDUIT    977.90     0  01:34      1.95    0.89    1.00
  WS02006109WS02006110 CONDUIT    978.00     0  01:34      1.95    1.88    1.00
  WS02004411WS02004412 CONDUIT    993.92     0  01:36      1.29    1.41    0.96
  WS02004401WS02004402 CONDUIT   1016.33     0  01:34      1.29    1.22    1.00
  WS02004413WS02003067 CONDUIT    996.36     0  01:35      1.63    0.43    0.73
  WS02004412WS02004413 CONDUIT    994.80     0  01:35      1.28    0.67    0.97
  WS02004410WS02004411 CONDUIT    993.54     0  01:36      1.27    1.36    0.99
  WS02004409WS02004410 CONDUIT   1008.67     0  01:34      1.29    1.30    1.00
  WS02004407WS02004409 CONDUIT   1016.30     0  01:34      1.85    0.36    0.71
  WS02004406WS02004407 CONDUIT   1019.45     0  01:34      1.72    0.46    0.71
  WS02004405WS02004406 CONDUIT   1018.65     0  01:34      1.30    2.01    1.00
  WS02004404WS02004405 CONDUIT   1018.66     0  01:34      1.30    9.98    1.00
  WS02004403WS02004404 CONDUIT   1017.50     0  01:34      1.30    0.74    1.00
  WS02004402WS02004403 CONDUIT   1017.24     0  01:34      1.30    1.46    1.00
  WS02004139WS02001211 CONDUIT    382.76     0  03:15      0.90    0.48    0.65
  WS02004138WS02004139 CONDUIT    395.52     0  00:00      3.64    0.08    0.47
  WS02003067WS02003066 CONDUIT   1000.48     0  01:35      1.71    0.32    0.52
  WS02001213WS02003059 CONDUIT    398.04     0  03:14      0.89    0.66    0.88
  WS02001212WS02001213 CONDUIT    395.23     0  03:15      1.32    0.61    0.57
  WS02001211WS02001212 CONDUIT    392.86     0  03:15      0.78    0.30    0.72
  WS02003072WS02003073 CONDUIT   1379.10     0  01:42      1.99    2.98    0.59
  WS02003069WS02003072 CONDUIT   1379.14     0  01:43      1.84    0.66    0.63
  WS02003060WS02003069 CONDUIT   1378.69     0  01:42      2.04    0.54    0.58
  WS02003059WS02003060 CONDUIT    401.35     0  03:14      0.95    0.26    0.79
  HS02004901HS02004770 CONDUIT     47.75     0  01:32      0.11    0.18    0.61
  HS02004876HS02004881 CONDUIT    177.76     0  01:33      1.41    1.89    0.20
  HS02004870HS02004876 CONDUIT    143.30     0  01:35      0.95    0.10    0.22
  HS02004842HS02004848 CONDUIT     21.86     0  01:49      0.09    0.01    0.35
  HS02004837HS02004842 CONDUIT     22.38     0  01:49      0.42    0.01    0.37
  HS02004830HS02004837 CONDUIT     81.97     0  01:35      0.70    0.08    0.18
  HS02004824HS02004830 CONDUIT     82.88     0  01:37      0.63    0.11    0.25
  HS02004817HS02004824 CONDUIT    166.01     0  01:39      0.37    0.07    0.64
  HS02004770HS02004777 CONDUIT    244.64     0  01:32      0.57    0.45    0.62
  HS02004799HS02004480 CONDUIT    605.42     0  01:33      1.21    0.76    0.71
  HS02004792HS02004799 CONDUIT    554.25     0  01:33      1.36    0.34    0.58
  HS02004788HS02004792 CONDUIT    319.85     0  01:34      1.40    0.21    0.33
  HS02004785HS02004788 CONDUIT    244.45     0  01:33      1.02    1.84    0.34
  HS02004777HS02004785 CONDUIT    244.32     0  01:33      0.67    0.30    0.52
  HS02004480HS02004478 CONDUIT    712.97     0  01:33      1.74    3.00    0.59
  HS02004479HS02004480 CONDUIT    107.65     0  01:33      0.45    0.10    0.68
  HS02004862HS02004870 CONDUIT    109.57     0  01:36      0.90    0.12    0.17
  HS02004848HS02004852 CONDUIT     51.63     0  01:36      0.58    0.06    0.13
  HS02004856HS02004862 CONDUIT     76.86     0  01:35      0.67    0.08    0.16
  HS02004852HS02004856 CONDUIT     51.73     0  01:36      0.39    0.06    0.19
  HS02004802HS02004478 CONDUIT    227.64     0  01:38      0.57    0.20    0.58
  HS02004478WS02006287 CONDUIT    934.66     0  01:35      2.37    0.26    0.44
  HS02004817HS02004807 CONDUIT    166.71     0  01:39      0.30    0.10    0.81
  HS02004807HS02004802 CONDUIT    226.44     0  01:37      0.51    0.43    0.64
  YS02001759YS02001757 CONDUIT    899.39     0  01:41      1.15    0.64    1.00
  YS02001762YS02001759 CONDUIT    370.53     0  01:26      0.47    0.43    1.00
  YS02001765YS02001762 CONDUIT    368.48     0  01:32      0.47    0.35    1.00
  YS02001770YS02001767 CONDUIT    371.61     0  01:26      0.50    1.47    1.00
  YS02001774YS02001770 CONDUIT    851.74     0  02:36      1.08    0.54    1.00
  YS02001779YS02001774 CONDUIT    851.69     0  02:36      1.08    0.43    1.00
  YS02001649YS02001757 CONDUIT    889.67     0  01:39      1.13    0.54    1.00
  YS02001767YS02001765 CONDUIT    368.54     0  01:35      0.48    0.46    1.00
  YS02006561YS02001783 CONDUIT   1024.12     0  01:31      2.27    0.53    1.00
  YS02001783YS02001784 CONDUIT   1024.20     0  01:31      2.04    1.41    1.00
  YS02001784YS02001785 CONDUIT   1025.17     0  01:31      2.08    2.39    1.00
  YS02001788YS02001790 CONDUIT    983.94     0  02:00      2.48    0.73    1.00
  YS02001790YS02001791 CONDUIT    984.22     0  01:51      2.97    1.07    1.00
  YS02001791YS02001793 CONDUIT    984.36     0  01:51      5.82    0.42    1.00
  YS02001910YS02001907 CONDUIT    911.58     0  03:01      1.16    0.51    1.00
  YS02001786YS02001788 CONDUIT   1004.73     0  01:31      2.32    1.94    1.00
  YS02001915YS02001910 CONDUIT    911.29     0  03:01      1.16    0.45    1.00
  YS02001918YS02001915 CONDUIT    436.71     0  01:32      0.59    0.24    1.00
  YS02001923YS02001920 CONDUIT    403.08     0  01:33      0.91    0.18    1.00
  YS02001926YS02001923 CONDUIT    463.59     0  01:33      1.01    0.66    1.00
  YS02001929YS02001926 CONDUIT    352.44     0  03:01      1.07    0.17    1.00
  YS02001920YS02001918 CONDUIT    401.63     0  01:34      0.86    0.39    1.00
  YS02001629YS02163301 CONDUIT    283.09     0  01:26      0.36    0.35    1.00
  YS02001619YS02001622 CONDUIT    574.86     0  03:01      0.86    0.85    1.00
  YS02001622YS02001625 CONDUIT    575.15     0  03:01      0.73    0.31    1.00
  YS02001625YS02001629 CONDUIT    258.13     0  01:26      0.39    0.12    1.00
  YS02163301YS02001633 CONDUIT    277.02     0  01:26      0.35    0.26    1.00
  YS02163601YS02164001 CONDUIT    458.40     0  01:28      0.58    0.41    1.00
  YS02164001YS02001641 CONDUIT    456.53     0  01:28      0.58    0.62    1.00
  YS02001641YS02001644 CONDUIT    458.24     0  01:28      0.58    1.48    1.00
  YS02001647YS02001649 CONDUIT    846.72     0  03:19      1.08    0.45    1.00
  YS02006553YS02006556 CONDUIT    730.50     0  04:02      0.93    0.62    1.00
  YS02006556YS02006558 CONDUIT    731.62     0  04:02      0.93    0.58    1.00
  YSB6556YSB1171       CONDUIT     59.52     0  01:34      0.17    0.06    0.88
  YS02001907YS02006553 CONDUIT    730.69     0  04:01      0.81    0.86    1.00
  YS02006558YS02006561 CONDUIT   1062.77     0  01:32      3.77    2.35    1.00
  YS02001633YS02163601 CONDUIT    459.78     0  01:28      0.59    0.48    1.00
  YS02001644YS02001647 CONDUIT    846.74     0  03:19      1.08    0.50    1.00
  YS02001745YS02001748 CONDUIT    667.45     0  03:01      1.86    0.26    1.00
  YS02001748YS02001751 CONDUIT    667.78     0  03:01      1.39    0.34    1.00
  YS02001751YS02001754 CONDUIT    668.40     0  03:01      1.15    0.32    1.00
  YS02001754YS02001757 CONDUIT    669.06     0  03:01      0.85    0.27    1.00
  YS02001882YS02001884 CONDUIT     36.84     0  01:29      0.22    0.04    1.00
  YS02001884YS02001887 CONDUIT     64.45     0  01:29      0.16    0.09    1.00
  YS02001890YS02001895 CONDUIT    593.47     0  01:32      0.76    0.28    1.00
  YS02001895YS02001898 CONDUIT    597.23     0  01:32      0.76    1.04    1.00
  YS02001898YS02001901 CONDUIT    602.11     0  01:32      0.77    0.39    1.00
  YS02001901YS02001904 CONDUIT    604.18     0  01:32      0.77    0.94    1.00
  YS02001904YS02001907 CONDUIT    605.74     0  01:32      0.77    0.21    1.00
  YS02001887YS02001890 CONDUIT    815.79     0  01:57      1.04    1.40    1.00
  YS02001652YS02001649 CONDUIT    639.70     0  03:01      0.84    0.32    1.00
  YS02001655YS02001652 CONDUIT    639.59     0  03:01      1.25    0.31    1.00
  YS02001658YS02001655 CONDUIT    639.24     0  03:01      1.61    0.27    1.00
  YS02001661YS02001658 CONDUIT    638.98     0  03:01      1.99    0.25    1.00
  YS02001664YS02001661 CONDUIT    801.19     0  01:41      1.90    0.25    0.84
  YSB1154YSB6556       CONDUIT     59.44     0  01:33      0.17    0.11    0.84
  YSB1174YSB1171       CONDUIT     50.30     0  01:30      0.14    0.08    0.92
  YSB1171HS02004479    CONDUIT    107.71     0  01:33      0.54    0.07    0.78
  HS02004881HS02006253 CONDUIT    284.43     0  01:32      2.76    0.06    0.57
  YS02001793JiankangQianchi CONDUIT   1024.24     0  01:30     16.71    0.08    1.00
  YS02001757CaochengTiaoxuchi CONDUIT   2182.40     0  01:41      3.80    0.96    1.00
  WSF200WS02003060     CONDUIT   1004.63     0  01:36      2.04    0.22    0.46
  1                    CONDUIT   1381.86     0  01:43      3.62    0.48    0.49
  CC-Pump-1            PUMP       200.00     0  02:10              1.00
  CC-Pump-2            PUMP       200.00     0  02:40              1.00
  JK-Pump-1            PUMP       300.00     0  00:00              1.00
  JK-Pump-2            PUMP       683.00     0  01:40              1.00
  XR-Pump-1            PUMP        95.00     0  00:00              1.00
  XR-Pump-2            PUMP        95.00     0  00:00              1.00
  XR-Pump-3            PUMP        95.00     0  00:00              1.00
  XR-Pump-4            PUMP        95.00     0  00:00              1.00
  
  
  ***************************
  Flow Classification Summary
  ***************************
  
  -------------------------------------------------------------------------------------
                      Adjusted    ---------- Fraction of Time in Flow Class ---------- 
                       /Actual         Up    Down  Sub   Sup   Up    Down  Norm  Inlet 
  Conduit               Length    Dry  Dry   Dry   Crit  Crit  Crit  Crit  Ltd   Ctrl  
  -------------------------------------------------------------------------------------
  WS02003066WSF200        1.00   0.01  0.02  0.00  0.00  0.97  0.00  0.00  0.44  0.00
  WS02006287WS02006284    1.00   0.03  0.01  0.00  0.62  0.34  0.00  0.00  0.61  0.00
  WS02006284WS02006280    1.00   0.04  0.00  0.00  0.00  0.00  0.00  0.96  0.00  0.00
  WS02006280WS02006229    1.00   0.04  0.00  0.00  0.05  0.09  0.00  0.83  0.04  0.00
  WS02006229WS02006228    1.00   0.00  0.00  0.00  1.00  0.00  0.00  0.00  0.00  0.00
  WS02006256WS02006235    1.00   0.00  0.00  0.00  1.00  0.00  0.00  0.00  0.00  0.00
  WS02006253WS02006251    1.00   0.02  0.01  0.00  0.96  0.00  0.01  0.00  0.00  0.00
  WS02006252WS02006251    1.00   0.07  0.00  0.00  0.22  0.00  0.70  0.00  0.00  0.00
  WS02006251WS02006249    1.00   0.00  0.00  0.00  1.00  0.00  0.00  0.00  0.13  0.00
  WS02006249WS02006248    1.00   0.00  0.01  0.00  0.95  0.00  0.04  0.00  0.00  0.00
  WS02006248WS02006247    1.00   0.01  0.00  0.00  0.99  0.00  0.00  0.00  0.05  0.00
  WS02006247WS02006245    1.00   0.00  0.00  0.00  0.99  0.00  0.00  0.00  0.00  0.00
  WS02006245WS02006243    1.00   0.00  0.00  0.00  0.97  0.00  0.00  0.03  0.01  0.00
  WS02006243WS02006242    1.00   0.00  0.00  0.00  0.99  0.00  0.00  0.00  0.14  0.00
  WS02006242WS02006240    1.00   0.00  0.00  0.00  0.99  0.00  0.00  0.00  0.00  0.00
  WS02006240WS02006239    1.00   0.00  0.00  0.00  0.97  0.00  0.00  0.03  0.01  0.00
  WS02006239WS02006238    1.00   0.00  0.00  0.00  1.00  0.00  0.00  0.00  0.09  0.00
  WS02006238WS02006235    1.00   0.00  0.00  0.00  1.00  0.00  0.00  0.00  0.00  0.00
  WS02006235WS02006234    1.00   0.00  0.00  0.00  0.98  0.00  0.02  0.00  0.00  0.00
  WS02006234WS02006232    1.00   0.00  0.00  0.00  1.00  0.00  0.00  0.00  0.04  0.00
  WS02006232WS02006231    1.00   0.00  0.00  0.00  1.00  0.00  0.00  0.00  0.00  0.00
  WS02006231WS02006230    1.00   0.00  0.00  0.00  0.82  0.00  0.18  0.00  0.00  0.00
  WS02006230WS02006229    1.00   0.00  0.00  0.00  1.00  0.00  0.00  0.00  0.00  0.00
  WS02006228WS02006109    1.00   0.00  0.00  0.00  1.00  0.00  0.00  0.00  0.00  0.00
  WS02006116WS02004401    1.00   0.01  0.00  0.00  0.99  0.00  0.00  0.00  0.00  0.00
  WS02006115WS02006116    1.00   0.01  0.00  0.00  0.99  0.00  0.00  0.00  0.00  0.00
  WS02006113WS02006111    1.00   0.01  0.00  0.00  0.15  0.85  0.00  0.00  0.11  0.00
  WS02006112WS02006115    1.00   0.01  0.00  0.00  0.99  0.00  0.00  0.00  0.00  0.00
  WS02006111WS02006112    1.00   0.01  0.00  0.00  0.99  0.00  0.00  0.00  0.73  0.00
  WS02006110WS02006113    1.00   0.00  0.00  0.00  0.99  0.00  0.00  0.00  0.00  0.00
  WS02006109WS02006110    1.00   0.00  0.00  0.00  0.99  0.00  0.00  0.00  0.00  0.00
  WS02004411WS02004412    1.00   0.02  0.00  0.00  0.98  0.00  0.00  0.00  0.00  0.00
  WS02004401WS02004402    1.00   0.01  0.00  0.00  0.99  0.00  0.00  0.00  0.00  0.00
  WS02004413WS02003067    1.00   0.02  0.01  0.00  0.00  0.00  0.98  0.00  0.00  0.00
  WS02004412WS02004413    1.00   0.02  0.00  0.00  0.98  0.00  0.00  0.00  0.01  0.00
  WS02004410WS02004411    1.00   0.02  0.00  0.00  0.98  0.00  0.00  0.00  0.00  0.00
  WS02004409WS02004410    1.00   0.01  0.00  0.00  0.99  0.00  0.00  0.00  0.02  0.00
  WS02004407WS02004409    1.00   0.01  0.00  0.00  0.98  0.00  0.00  0.00  0.94  0.00
  WS02004406WS02004407    1.00   0.00  0.01  0.00  0.99  0.00  0.00  0.00  0.00  0.00
  WS02004405WS02004406    1.00   0.00  0.00  0.00  1.00  0.00  0.00  0.00  0.00  0.00
  WS02004404WS02004405    1.00   0.00  0.00  0.00  1.00  0.00  0.00  0.00  0.00  0.00
  WS02004403WS02004404    1.00   0.00  0.01  0.00  0.99  0.00  0.00  0.00  0.00  0.00
  WS02004402WS02004403    1.00   0.01  0.00  0.00  0.99  0.00  0.00  0.00  0.00  0.00
  WS02004139WS02001211    1.00   0.00  0.00  0.00  1.00  0.00  0.00  0.00  0.00  0.00
  WS02004138WS02004139    1.00   0.00  0.00  0.00  1.00  0.00  0.00  0.00  1.00  0.00
  WS02003067WS02003066    1.00   0.02  0.00  0.00  0.97  0.00  0.00  0.00  0.00  0.00
  WS02001213WS02003059    1.00   0.00  0.00  0.00  1.00  0.00  0.00  0.00  0.00  0.00
  WS02001212WS02001213    1.00   0.00  0.00  0.00  0.94  0.00  0.06  0.00  0.00  0.00
  WS02001211WS02001212    1.00   0.00  0.00  0.00  1.00  0.00  0.00  0.00  0.00  0.00
  WS02003072WS02003073    1.00   0.00  0.00  0.00  0.00  0.00  0.00  1.00  0.00  0.00
  WS02003069WS02003072    1.00   0.00  0.00  0.00  1.00  0.00  0.00  0.00  0.05  0.00
  WS02003060WS02003069    1.00   0.00  0.00  0.00  0.99  0.01  0.00  0.00  0.05  0.00
  WS02003059WS02003060    1.00   0.00  0.00  0.00  1.00  0.00  0.00  0.00  0.01  0.00
  HS02004901HS02004770    1.00   0.03  0.00  0.00  0.97  0.00  0.00  0.00  0.00  0.00
  HS02004876HS02004881    1.00   0.01  0.00  0.00  0.83  0.17  0.00  0.00  0.00  0.00
  HS02004870HS02004876    1.00   0.00  0.00  0.00  0.99  0.00  0.00  0.00  0.95  0.00
  HS02004842HS02004848    1.00   0.00  0.03  0.00  0.97  0.00  0.00  0.00  0.53  0.00
  HS02004837HS02004842    1.00   0.00  0.00  0.00  1.00  0.00  0.00  0.00  0.11  0.00
  HS02004830HS02004837    1.00   0.00  0.00  0.00  1.00  0.00  0.00  0.00  0.99  0.00
  HS02004824HS02004830    1.00   0.00  0.00  0.00  1.00  0.00  0.00  0.00  0.03  0.00
  HS02004817HS02004824    1.00   0.00  0.00  0.00  1.00  0.00  0.00  0.00  0.86  0.00
  HS02004770HS02004777    1.00   0.00  0.03  0.00  0.97  0.00  0.00  0.00  0.01  0.00
  HS02004799HS02004480    1.00   0.00  0.01  0.00  0.96  0.00  0.02  0.00  0.00  0.00
  HS02004792HS02004799    1.00   0.00  0.00  0.00  1.00  0.00  0.00  0.00  0.98  0.00
  HS02004788HS02004792    1.00   0.00  0.00  0.00  1.00  0.00  0.00  0.00  0.98  0.00
  HS02004785HS02004788    1.00   0.00  0.00  0.00  1.00  0.00  0.00  0.00  0.00  0.00
  HS02004777HS02004785    1.00   0.00  0.00  0.00  1.00  0.00  0.00  0.00  0.10  0.00
  HS02004480HS02004478    1.00   0.03  0.00  0.00  0.70  0.00  0.00  0.27  0.00  0.00
  HS02004479HS02004480    1.00   0.01  0.00  0.00  0.99  0.00  0.00  0.00  0.10  0.00
  HS02004862HS02004870    1.00   0.00  0.00  0.00  1.00  0.00  0.00  0.00  0.02  0.00
  HS02004848HS02004852    1.00   0.03  0.00  0.00  0.97  0.00  0.00  0.00  0.83  0.00
  HS02004856HS02004862    1.00   0.00  0.04  0.00  0.96  0.00  0.00  0.00  0.85  0.00
  HS02004852HS02004856    1.00   0.03  0.00  0.00  0.96  0.00  0.00  0.00  0.69  0.00
  HS02004802HS02004478    1.00   0.03  0.00  0.00  0.96  0.00  0.00  0.00  0.01  0.00
  HS02004478WS02006287    1.00   0.04  0.00  0.00  0.76  0.20  0.00  0.00  0.58  0.00
  HS02004817HS02004807    1.00   0.00  0.03  0.00  0.97  0.00  0.00  0.00  0.01  0.00
  HS02004807HS02004802    1.00   0.03  0.00  0.00  0.96  0.00  0.00  0.00  0.00  0.00
  YS02001759YS02001757    1.00   0.00  0.00  0.00  1.00  0.00  0.00  0.00  0.15  0.00
  YS02001762YS02001759    1.00   0.00  0.00  0.00  1.00  0.00  0.00  0.00  0.01  0.00
  YS02001765YS02001762    1.00   0.00  0.00  0.00  1.00  0.00  0.00  0.00  0.13  0.00
  YS02001770YS02001767    1.00   0.00  0.00  0.00  1.00  0.00  0.00  0.00  0.00  0.00
  YS02001774YS02001770    1.00   0.00  0.03  0.00  0.97  0.00  0.00  0.00  0.01  0.00
  YS02001779YS02001774    1.00   0.00  0.00  0.00  1.00  0.00  0.00  0.00  0.15  0.00
  YS02001649YS02001757    1.00   0.00  0.00  0.00  1.00  0.00  0.00  0.00  0.14  0.00
  YS02001767YS02001765    1.00   0.00  0.00  0.00  1.00  0.00  0.00  0.00  0.00  0.00
  YS02006561YS02001783    1.00   0.04  0.00  0.00  0.49  0.47  0.00  0.00  0.35  0.00
  YS02001783YS02001784    1.00   0.00  0.04  0.00  0.96  0.00  0.00  0.00  0.00  0.00
  YS02001784YS02001785    1.00   0.00  0.00  0.00  1.00  0.00  0.00  0.00  0.15  0.00
  YS02001788YS02001790    1.00   0.00  0.00  0.00  0.52  0.48  0.00  0.00  0.26  0.00
  YS02001790YS02001791    1.00   0.00  0.00  0.00  0.50  0.50  0.00  0.00  0.32  0.00
  YS02001791YS02001793    1.00   0.00  0.00  0.00  0.52  0.48  0.00  0.00  0.02  0.00
  YS02001910YS02001907    1.00   0.00  0.00  0.00  0.99  0.00  0.00  0.01  0.11  0.00
  YS02001786YS02001788    1.00   0.00  0.00  0.00  0.51  0.49  0.00  0.00  0.00  0.00
  YS02001915YS02001910    1.00   0.00  0.00  0.00  0.99  0.01  0.00  0.00  0.12  0.00
  YS02001918YS02001915    1.00   0.00  0.00  0.00  0.99  0.01  0.00  0.00  0.43  0.00
  YS02001923YS02001920    1.00   0.00  0.00  0.00  1.00  0.00  0.00  0.00  0.65  0.00
  YS02001926YS02001923    1.00   0.00  0.02  0.00  0.30  0.00  0.68  0.00  0.00  0.00
  YS02001929YS02001926    1.00   0.00  0.03  0.00  0.97  0.00  0.00  0.00  0.56  0.00
  YS02001920YS02001918    1.00   0.00  0.00  0.00  1.00  0.00  0.00  0.00  0.00  0.00
  YS02001629YS02163301    1.00   0.04  0.00  0.00  0.96  0.00  0.00  0.00  0.00  0.00
  YS02001619YS02001622    1.00   0.03  0.00  0.00  0.97  0.00  0.00  0.00  0.00  0.00
  YS02001622YS02001625    1.00   0.03  0.00  0.00  0.96  0.00  0.00  0.00  0.02  0.00
  YS02001625YS02001629    1.00   0.03  0.01  0.00  0.95  0.00  0.01  0.00  0.00  0.00
  YS02163301YS02001633    1.00   0.00  0.04  0.00  0.96  0.00  0.00  0.00  0.00  0.00
  YS02163601YS02164001    1.00   0.00  0.02  0.00  0.98  0.00  0.00  0.00  0.00  0.00
  YS02164001YS02001641    1.00   0.00  0.02  0.00  0.98  0.00  0.00  0.00  0.05  0.00
  YS02001641YS02001644    1.00   0.00  0.00  0.00  1.00  0.00  0.00  0.00  0.00  0.00
  YS02001647YS02001649    1.00   0.00  0.04  0.00  0.96  0.00  0.00  0.00  0.01  0.00
  YS02006553YS02006556    1.00   0.00  0.00  0.00  1.00  0.00  0.00  0.00  0.03  0.00
  YS02006556YS02006558    1.00   0.00  0.00  0.00  1.00  0.00  0.00  0.00  0.00  0.00
  YSB6556YSB1171          1.00   0.01  0.02  0.00  0.97  0.00  0.00  0.00  0.00  0.00
  YS02001907YS02006553    1.00   0.00  0.01  0.00  0.99  0.00  0.00  0.00  0.00  0.00
  YS02006558YS02006561    1.00   0.04  0.00  0.00  0.29  0.67  0.00  0.00  0.35  0.00
  YS02001633YS02163601    1.00   0.00  0.00  0.00  1.00  0.00  0.00  0.00  0.14  0.00
  YS02001644YS02001647    1.00   0.00  0.04  0.00  0.96  0.00  0.00  0.00  0.00  0.00
  YS02001745YS02001748    1.00   0.00  0.00  0.00  0.94  0.00  0.00  0.06  0.00  0.00
  YS02001748YS02001751    1.00   0.00  0.00  0.00  0.98  0.02  0.00  0.00  0.13  0.00
  YS02001751YS02001754    1.00   0.00  0.00  0.00  0.96  0.00  0.00  0.04  0.01  0.00
  YS02001754YS02001757    1.00   0.00  0.00  0.00  1.00  0.00  0.00  0.00  0.15  0.00
  YS02001882YS02001884    1.00   0.04  0.00  0.00  0.96  0.00  0.00  0.00  0.00  0.00
  YS02001884YS02001887    1.00   0.02  0.01  0.00  0.97  0.00  0.00  0.00  0.00  0.00
  YS02001890YS02001895    1.00   0.00  0.04  0.00  0.96  0.00  0.00  0.00  0.00  0.00
  YS02001895YS02001898    1.00   0.04  0.00  0.00  0.96  0.00  0.01  0.00  0.00  0.00
  YS02001898YS02001901    1.00   0.04  0.00  0.00  0.96  0.00  0.00  0.00  0.00  0.00
  YS02001901YS02001904    1.00   0.04  0.00  0.00  0.96  0.00  0.00  0.00  0.00  0.00
  YS02001904YS02001907    1.00   0.00  0.04  0.00  0.96  0.00  0.00  0.00  0.00  0.00
  YS02001887YS02001890    1.00   0.00  0.00  0.00  0.99  0.00  0.01  0.00  0.00  0.00
  YS02001652YS02001649    1.00   0.00  0.00  0.00  1.00  0.00  0.00  0.00  0.14  0.00
  YS02001655YS02001652    1.00   0.00  0.00  0.00  0.96  0.00  0.00  0.04  0.01  0.00
  YS02001658YS02001655    1.00   0.00  0.04  0.00  0.95  0.02  0.00  0.00  0.01  0.00
  YS02001661YS02001658    1.00   0.04  0.00  0.00  0.94  0.02  0.00  0.00  0.00  0.00
  YS02001664YS02001661    1.00   0.03  0.00  0.00  0.94  0.02  0.00  0.00  0.06  0.00
  YSB1154YSB6556          1.00   0.03  0.00  0.00  0.97  0.00  0.00  0.00  0.01  0.00
  YSB1174YSB1171          1.00   0.02  0.01  0.00  0.97  0.00  0.00  0.00  0.00  0.00
  YSB1171HS02004479       1.00   0.01  0.00  0.00  0.98  0.00  0.00  0.00  0.09  0.00
  HS02004881HS02006253    1.00   0.02  0.00  0.00  0.83  0.02  0.00  0.14  0.72  0.00
  YS02001793JiankangQianchi    1.00   0.00  0.00  0.00  0.74  0.25  0.00  0.00  0.28  0.00
  YS02001757CaochengTiaoxuchi    1.00   0.00  0.05  0.00  0.93  0.02  0.00  0.00  0.00  0.00
  WSF200WS02003060        1.00   0.00  0.01  0.00  0.99  0.00  0.00  0.00  0.29  0.00
  1                       1.00   0.00  0.00  0.00  0.00  1.00  0.00  0.00  0.55  0.00
  
  
  *************************
  Conduit Surcharge Summary
  *************************
  
  ----------------------------------------------------------------------------
                                                           Hours        Hours 
                         --------- Hours Full --------   Above Full   Capacity
  Conduit                Both Ends  Upstream  Dnstream   Normal Flow   Limited
  ----------------------------------------------------------------------------
  WS02006280WS02006229        0.01      0.01      0.01      0.01         0.01
  WS02006229WS02006228        4.60      4.79      4.60      5.81         4.60
  WS02006256WS02006235        6.58      6.58      7.06      5.18         0.01
  WS02006253WS02006251        3.33      3.33      3.47      0.01         0.01
  WS02006252WS02006251        2.64      2.64      3.69      2.31         0.01
[...]
  YS02001649YS02001757        6.40      6.40      6.42      0.01         0.01
  YS02001767YS02001765        6.39      6.39      6.40      0.01         0.01
  YS02006561YS02001783        2.42      2.42      2.63      0.01         0.01
  YS02001783YS02001784        2.60      2.63      2.60      2.88         2.60
  YS02001784YS02001785        2.52      2.60      2.52      3.62         2.52
  YS02001788YS02001790        2.47      2.47      3.36      0.01         0.01
  YS02001790YS02001791        3.36      3.36      3.45      2.56         2.54
  YS02001791YS02001793        3.45      3.45      3.79      0.01         0.01
  YS02001910YS02001907        2.67      2.67      3.11      0.01         0.01
  YS02001786YS02001788        2.47      2.52      2.47      3.26         2.47
  YS02001915YS02001910        2.54      2.54      2.67      0.01         0.01
  YS02001918YS02001915        2.40      2.40      2.54      0.01         0.01
  YS02001923YS02001920        2.24      2.24      2.42      0.01         0.01
  YS02001926YS02001923        0.01      0.01      0.01      0.01         0.01
  YS02001929YS02001926        0.01      0.01      0.01      0.01         0.01
  YS02001920YS02001918        2.40      2.40      2.42      0.01         0.01
  YS02001629YS02163301        6.38      6.38      6.39      0.01         0.01
  YS02001619YS02001622        6.37      6.37      6.37      0.01         0.03
  YS02001622YS02001625        6.37      6.37      6.38      0.01         0.01
  YS02001625YS02001629        6.37      6.37      6.38      0.01         0.01
  YS02163301YS02001633        6.39      6.39      6.40      0.01         0.01
  YS02163601YS02164001        6.40      6.40      6.40      0.01         0.01
  YS02164001YS02001641        6.40      6.40      6.40      0.01         0.02
  YS02001641YS02001644        6.40      6.40      6.40      3.17         3.16
  YS02001647YS02001649        6.38      6.38      6.40      0.01         0.01
  YS02006553YS02006556        2.84      2.84      3.18      0.01         0.01
  YS02006556YS02006558        2.94      2.94      3.24      0.01         0.01
  YSB6556YSB1171              0.01      0.01      0.58      0.01         0.01
  YS02001907YS02006553        3.63      3.63      3.83      0.01         0.01
  YS02006558YS02006561        2.49      2.81      2.49      3.50         2.49
  YS02001633YS02163601        6.40      6.40      6.40      0.01         0.01
  YS02001644YS02001647        6.38      6.38      6.40      0.01         0.01
  YS02001745YS02001748        0.94      0.94      6.35      0.01         0.01
  YS02001748YS02001751        6.35      6.35      6.36      0.01         0.01
  YS02001751YS02001754        6.36      6.36      6.38      0.01         0.01
  YS02001754YS02001757        6.38      6.38      6.42      0.01         0.01
  YS02001882YS02001884        2.54      2.54      2.56      0.01         0.01
  YS02001884YS02001887        2.59      2.59      2.62      0.01         0.01
  YS02001890YS02001895        2.53      2.53      2.69      0.01         0.01
  YS02001895YS02001898        2.51      2.51      2.53      0.01         0.01
  YS02001898YS02001901        2.53      2.53      2.59      0.01         0.01
  YS02001901YS02001904        2.57      2.57      2.59      0.01         0.01
  YS02001904YS02001907        2.57      2.57      3.21      0.01         0.01
  YS02001887YS02001890        2.64      2.64      2.66      1.66         0.01
  YS02001652YS02001649        6.38      6.38      6.40      0.01         0.01
  YS02001655YS02001652        6.37      6.37      6.38      0.01         0.01
  YS02001658YS02001655        6.35      6.35      6.37      0.01         0.01
  YS02001661YS02001658        1.52      1.52      6.35      0.01         0.01
  YS02001664YS02001661        0.01      0.01      2.69      0.01         0.01
  YSB1174YSB1171              0.01      0.01      0.32      0.01         0.01
  HS02004881HS02006253        0.01      0.01      2.29      0.01         0.01
  YS02001793JiankangQianchi        3.70      3.70      4.96      0.01         0.01
  YS02001757CaochengTiaoxuchi        5.98      5.98      6.42      0.01         0.01
  
  
  ***************
  Pumping Summary
  ***************
  
  ---------------------------------------------------------------------------------------------------------
                                                  Min       Avg       Max     Total     Power    % Time Off
                        Percent   Number of      Flow      Flow      Flow    Volume     Usage    Pump Curve
  Pump                 Utilized   Start-Ups       LPS       LPS       LPS  10^6 ltr     Kw-hr    Low   High
  ---------------------------------------------------------------------------------------------------------
  CC-Pump-1               74.47           1      0.00    166.96    200.00     3.420      3.33    0.0    0.0
  CC-Pump-2               46.80           7      0.00    101.40    200.00     1.560      1.93    0.0    0.0
  JK-Pump-1               70.21           4      0.00    254.87    300.00     5.047     63.09    0.0    0.0
  JK-Pump-2               61.70           3      0.00    510.58    683.00     9.247    100.94    0.0   98.2
  XR-Pump-1               97.87           2      0.00     94.40     95.00     2.565     18.43    0.0    0.0
  XR-Pump-2               97.87           2      0.00     94.40     95.00     2.565     18.43    0.0    0.0
  XR-Pump-3               97.87           2      0.00     94.40     95.00     2.565     18.43    0.0    0.0
  XR-Pump-4               97.87           2      0.00     94.40     95.00     2.565     18.43    0.0    0.0
  
  
  ***************************
  Link Pollutant Load Summary
  ***************************
  
  ------------------------------------------------------------------------------------------
                                 COD            SS            TN            TP         NH4-N
  Link                            kg            kg            kg            kg            kg
  ------------------------------------------------------------------------------------------
  WS02003066WSF200          1479.067      2890.941        34.231         2.786        17.411
  WS02006287WS02006284       662.643      1308.466        17.244         1.527         9.013
  WS02006284WS02006280       663.097      1309.173        17.291         1.533         9.042
  WS02006280WS02006229       663.179      1309.436        17.290         1.533         9.042
  WS02006229WS02006228      1463.569      2860.260        33.424         2.686        16.929
  WS02006256WS02006235       295.332       563.653         6.266         0.467         3.113
  WS02006253WS02006251       129.828       262.694         2.781         0.204         1.364
  WS02006252WS02006251       560.944      1098.420        10.711         0.737         5.163
  WS02006251WS02006249       681.059      1342.722        13.312         0.930         6.443
  WS02006249WS02006248       542.931      1064.219        10.655         0.745         5.164
  WS02006248WS02006247       547.854      1073.635        10.774         0.755         5.227
  WS02006247WS02006245       546.150      1069.594        10.751         0.754         5.218
  WS02006245WS02006243       544.513      1065.764        10.728         0.753         5.209
  WS02006243WS02006242       543.196      1062.341        10.715         0.754         5.205
  WS02006242WS02006240       541.260      1057.690        10.685         0.752         5.192
  WS02006240WS02006239       540.500      1055.668        10.672         0.752         5.186
  WS02006239WS02006238       540.887      1056.210        10.677         0.752         5.189
  WS02006238WS02006235       540.692      1055.729        10.664         0.751         5.181
  WS02006235WS02006234       808.059      1565.785        16.329         1.170         7.989
  WS02006234WS02006232       810.810      1571.325        16.401         1.177         8.028
  WS02006232WS02006231       813.851      1577.506        16.478         1.184         8.068
  WS02006231WS02006230       817.208      1584.449        16.559         1.191         8.111
  WS02006230WS02006229       821.658      1593.736        16.656         1.199         8.160
  WS02006228WS02006109      1463.059      2859.364        33.408         2.684        16.920
  WS02006116WS02004401      1494.547      2919.151        34.604         2.815        17.600
  WS02006115WS02006116      1495.825      2921.529        34.640         2.818        17.620
  WS02006113WS02006111      1470.235      2870.918        34.177         2.782        17.404
  WS02006112WS02006115      1497.103      2923.911        34.680         2.822        17.642
  WS02006111WS02006112      1469.385      2869.139        34.154         2.780        17.392
  WS02006110WS02006113      1470.567      2871.363        34.192         2.784        17.413
  WS02006109WS02006110      1471.321      2872.556        34.223         2.787        17.430
  WS02004411WS02004412      1483.826      2899.426        34.384         2.800        17.495
  WS02004401WS02004402      1493.266      2916.785        34.565         2.811        17.579
  WS02004413WS02003067      1480.375      2893.264        34.269         2.789        17.431
  WS02004412WS02004413      1481.982      2896.152        34.326         2.795        17.463
  WS02004410WS02004411      1485.400      2902.238        34.431         2.804        17.520
  WS02004409WS02004410      1486.870      2904.884        34.475         2.808        17.544
  WS02004407WS02004409      1488.188      2907.248        34.512         2.812        17.563
  WS02004406WS02004407      1488.573      2907.885        34.521         2.812        17.567
  WS02004405WS02004406      1490.170      2910.767        34.574         2.817        17.597
  WS02004404WS02004405      1491.444      2913.159        34.587         2.817        17.601
  WS02004403WS02004404      1491.013      2912.636        34.499         2.805        17.544
  WS02004402WS02004403      1492.083      2914.611        34.531         2.808        17.561
  WS02004139WS02001211      1287.578      2234.643        86.744        10.258        52.532
  WS02004138WS02004139      1293.268      2244.433        87.122        10.303        52.760
  WS02003067WS02003066      1479.345      2891.436        34.240         2.787        17.416
  WS02001213WS02003059      1321.839      2287.959        90.399        10.721        54.834
  WS02001212WS02001213      1330.275      2302.290        91.009        10.794        55.206
  WS02001211WS02001212      1332.455      2305.875        91.192        10.817        55.318
  WS02003072WS02003073      2899.654      5335.192       134.673        14.772        78.546
  WS02003069WS02003072      2905.163      5344.252       135.114        14.826        78.818
  WS02003060WS02003069      2908.184      5349.560       135.240        14.839        78.890
  WS02003059WS02003060      1319.055      2283.048        90.245        10.704        54.742
  HS02004901HS02004770        31.241        62.186         0.612         0.047         0.291
  HS02004876HS02004881       101.413       206.325         2.154         0.154         1.046
  HS02004870HS02004876        77.887       158.593         1.700         0.122         0.826
  HS02004842HS02004848        14.996        29.643         0.314         0.022         0.147
  HS02004837HS02004842        19.707        37.150         0.788         0.082         0.444
  HS02004830HS02004837       101.807       187.057         5.289         0.600         3.141
  HS02004824HS02004830       102.663       188.507         5.364         0.610         3.188
  HS02004817HS02004824       158.470       303.823         6.498         0.682         3.738
  HS02004770HS02004777       119.649       241.819         2.495         0.175         1.169
  HS02004799HS02004480       374.826       742.451         8.578         0.702         4.270
  HS02004792HS02004799       343.088       676.949         8.002         0.666         3.998
  HS02004788HS02004792       180.017       356.944         4.687         0.402         2.399
  HS02004785HS02004788       121.030       244.025         2.637         0.193         1.259
  HS02004777HS02004785       120.351       242.947         2.575         0.185         1.220
  HS02004480HS02004478       464.816       922.684        10.234         0.827         5.069
  HS02004479HS02004480        93.771       186.475         1.955         0.161         0.984
  HS02004862HS02004870        60.203       121.269         1.340         0.100         0.653
  HS02004848HS02004852        26.761        53.671         0.548         0.038         0.256
  HS02004856HS02004862        41.868        85.058         0.850         0.058         0.403
  HS02004852HS02004856        26.785        53.714         0.548         0.038         0.257
  HS02004802HS02004478       198.966       387.630         7.080         0.709         3.985
  HS02004478WS02006287       662.728      1308.514        17.261         1.529         9.023
  HS02004817HS02004807       157.291       302.062         6.359         0.664         3.651
  HS02004807HS02004802       198.932       387.533         7.105         0.712         4.002
  YS02001759YS02001757       601.078      1163.487        11.694         0.830         5.702
  YS02001762YS02001759       330.810       637.856         6.657         0.476         3.266
  YS02001765YS02001762       331.991       641.558         6.690         0.479         3.284
  YS02001770YS02001767       338.985       658.907         6.718         0.473         3.281
  YS02001774YS02001770       824.519      1639.077        16.175         1.103         7.857
  YS02001779YS02001774       824.070      1638.346        16.238         1.113         7.901
  YS02001649YS02001757       696.637      1343.100        13.861         0.956         6.700
  YS02001767YS02001765       334.587       648.097         6.743         0.483         3.312
  YS02006561YS02001783      1599.180      3067.433        33.095         2.424        16.321
  YS02001783YS02001784      1599.046      3067.215        33.090         2.423        16.319
  YS02001784YS02001785      1606.438      3079.089        33.803         2.513        16.765
  YS02001788YS02001790      1606.999      3079.995        33.874         2.522        16.810
  YS02001790YS02001791      1608.094      3081.801        33.975         2.534        16.873
  YS02001791YS02001793      1607.887      3081.401        33.969         2.534        16.870
  YS02001910YS02001907       952.058      1849.727        20.354         1.453        10.123
  YS02001786YS02001788      1606.645      3079.443        33.831         2.516        16.783
  YS02001915YS02001910       951.499      1848.625        20.304         1.446        10.091
  YS02001918YS02001915       473.295       888.287        10.552         0.857         5.397
  YS02001923YS02001920       447.683       844.251         8.517         0.610         4.142
  YS02001926YS02001923       444.552       838.555         8.396         0.598         4.072
  YS02001929YS02001926       441.867       833.760         8.299         0.588         4.018
  YS02001920YS02001918       468.769       878.740        10.454         0.851         5.349
  YS02001629YS02163301       210.509       398.179         4.143         0.295         1.982
  YS02001619YS02001622       451.027       868.451         9.084         0.615         4.291
  YS02001622YS02001625       450.691       868.001         9.071         0.614         4.286
  YS02001625YS02001629       204.869       387.156         4.042         0.287         1.931
  YS02163301YS02001633       216.246       409.426         4.242         0.303         2.031
  YS02163601YS02164001       716.055      1349.748        13.902         1.022         6.718
  YS02164001YS02001641       716.712      1350.933        13.902         1.021         6.716
  YS02001641YS02001644       719.106      1355.257        13.936         1.023         6.732
  YS02001647YS02001649       876.606      1682.824        17.590         1.237         8.439
  YS02006553YS02006556       808.690      1514.025        17.496         1.314         8.753
  YS02006556YS02006558       809.179      1514.941        17.463         1.309         8.730
  YSB6556YSB1171              54.544       108.517         1.086         0.087         0.541
  YS02001907YS02006553       808.436      1513.548        17.539         1.321         8.783
  YS02006558YS02006561      1599.108      3067.281        33.094         2.424        16.321
  YS02001633YS02163601       716.605      1350.653        13.878         1.017         6.699
  YS02001644YS02001647       883.537      1696.607        17.698         1.245         8.490
  YS02001745YS02001748       597.845      1178.481        11.860         0.761         5.722
  YS02001748YS02001751       597.355      1177.675        11.870         0.763         5.732
  YS02001751YS02001754       596.688      1176.599        11.859         0.763         5.728
  YS02001754YS02001757       597.861      1178.467        12.028         0.786         5.836
  YS02001882YS02001884         8.631        15.799         0.158         0.012         0.077
  YS02001884YS02001887         9.060        16.661         0.167         0.013         0.082
  YS02001890YS02001895       826.763      1597.668        15.713         1.197         7.694
  YS02001895YS02001898       826.762      1597.718        15.712         1.197         7.693
  YS02001898YS02001901       825.889      1596.345        15.686         1.195         7.680
  YS02001901YS02001904       825.003      1595.084        15.678         1.195         7.678
  YS02001904YS02001907       827.427      1598.859        15.806         1.209         7.753
  YS02001887YS02001890      1075.585      2094.324        20.302         1.549         9.936
  YS02001652YS02001649       539.812      1046.659        10.742         0.785         5.074
  YS02001655YS02001652       540.203      1047.328        10.754         0.786         5.080
  YS02001658YS02001655       539.702      1046.574        10.668         0.774         5.024
  YS02001661YS02001658       540.064      1047.166        10.677         0.775         5.028
  YS02001664YS02001661       554.873      1070.670        11.045         0.800         5.198
  YSB1154YSB6556              54.069       107.775         1.038         0.081         0.511
  YSB1174YSB1171              37.703        75.533         0.747         0.059         0.369
  YSB1171HS02004479           93.611       186.164         1.960         0.162         0.989
  HS02004881HS02006253       114.094       232.721         2.393         0.170         1.161
  YS02001793JiankangQianchi      1608.412      3082.245        33.987         2.536        16.879
  YS02001757CaochengTiaoxuchi       871.933      1680.545        17.107         1.179         8.272
  WSF200WS02003060          1478.377      2889.739        34.215         2.785        17.403
  1                         2905.289      5342.860       135.659        14.903        79.181
  CC-Pump-1                  387.225       758.747         7.384         0.508         3.559
  CC-Pump-2                  173.497       339.181         3.323         0.229         1.602
  JK-Pump-1                  461.411       890.140         9.549         0.704         4.717
  JK-Pump-2                  998.883      1938.509        20.446         1.503        10.078
  XR-Pump-1                  324.208       562.614        21.847         2.584        13.231
  XR-Pump-2                  324.208       562.614        21.847         2.584        13.231
  XR-Pump-3                  324.208       562.614        21.847         2.584        13.231
  XR-Pump-4                  324.208       562.614        21.847         2.584        13.231
  

  Analysis begun on:  Tue Jul 13 21:45:33 2021
  Analysis ended on:  Tue Jul 13 21:45:36 2021
  Total elapsed time: 00:00:03