
  EPA STORM WATER MANAGEMENT MODEL - VERSION 5.1 (Build 5.3.0.dev0)
  --------------------------------------------------------------

  WARNING 04: minimum elevation drop used for Conduit WS02004404WS02004405
  WARNING 03: negative offset ignored for Link YS02001904YS02001907
  
  *********************************************************
  NOTE: The summary statistics displayed in this report are
  based on results found at every computational time step,  
  not just on results from each reporting time step.
  *********************************************************
  
  ****************
  Analysis Options
  ****************
  Flow Units ............... LPS
  Process Models:
    Rainfall/Runoff ........ YES
    RDII ................... NO
    Snowmelt ............... NO
    Groundwater ............ NO
    Flow Routing ........... YES
    Ponding Allowed ........ NO
    Water Quality .......... YES
  Infiltration Method ...... HORTON
  Flow Routing Method ...... DYNWAVE
  Surcharge Method ......... EXTRAN
  Starting Date ............ 08/28/2015 08:00:00
  Ending Date .............. 08/28/2015 15:50:00
  Antecedent Dry Days ...... 8.0
  Report Time Step ......... 00:01:00
  Wet Time Step ............ 00:01:00
  Dry Time Step ............ 00:01:00
  Routing Time Step ........ 5.00 sec
  Variable Time Step ....... YES
  Maximum Trials ........... 8
  Number of Threads ........ 4
  Head Tolerance ........... 0.001500 m
  
  
  **************************        Volume         Depth
  Runoff Quantity Continuity     hectare-m            mm
  **************************     ---------       -------
  Total Precipitation ......         7.641        16.729
  Evaporation Loss .........         0.000         0.000
  Infiltration Loss ........         1.184         2.592
  Surface Runoff ...........         5.481        12.000
  Final Storage ............         0.977         2.139
  Continuity Error (%) .....        -0.016
  
  
  **************************           COD            SS            TN            TP         NH4-N
  Runoff Quality Continuity             kg            kg            kg            kg            kg
  **************************    ----------    ----------    ----------    ----------    ----------
  Initial Buildup ..........     41378.656     70582.865      1804.177       168.684      1032.807
  Surface Buildup ..........        30.344        63.217         2.449         0.220         1.402
  Wet Deposition ...........         0.000         0.000         0.000         0.000         0.000
  Sweeping Removal .........         0.000         0.000         0.000         0.000         0.000
  Infiltration Loss ........       127.934       247.015         2.452         0.174         1.174
  BMP Removal ..............         0.000         0.000         0.000         0.000         0.000
  Surface Runoff ...........      5553.100     10632.121       107.101         7.411        51.076
  Remaining Buildup ........     35725.917     59762.998      1697.031       161.316       981.940
  Continuity Error (%) .....         0.005         0.006         0.002         0.002         0.002
  
  
  **************************        Volume        Volume
  Flow Routing Continuity        hectare-m      10^6 ltr
  **************************     ---------     ---------
  Dry Weather Inflow .......         0.616         6.165
  Wet Weather Inflow .......         5.479        54.792
  Groundwater Inflow .......         0.000         0.000
  RDII Inflow ..............         0.000         0.000
  External Inflow ..........         0.102         1.024
  External Outflow .........         2.231        22.313
  Flooding Loss ............         3.538        35.379
  Evaporation Loss .........         0.000         0.000
  Exfiltration Loss ........         0.000         0.000
  Initial Stored Volume ....         0.076         0.761
  Final Stored Volume ......         0.633         6.327
  Continuity Error (%) .....        -2.039
  
  
  **************************           COD            SS            TN            TP         NH4-N
  Quality Routing Continuity            kg            kg            kg            kg            kg
  **************************    ----------    ----------    ----------    ----------    ----------
  Dry Weather Inflow .......      1541.201      2465.922       147.955        18.494        92.472
  Wet Weather Inflow .......      5552.019     10630.208       107.078         7.409        51.065
  Groundwater Inflow .......         0.000         0.000         0.000         0.000         0.000
  RDII Inflow ..............         0.000         0.000         0.000         0.000         0.000
  External Inflow ..........       183.418       293.469        17.608         2.201        11.005
  External Outflow .........      2696.515      4827.223       144.560        16.441        85.932
  Flooding Loss ............      3889.957      7368.472        99.565         8.709        52.307
  Exfiltration Loss ........         0.000         0.000         0.000         0.000         0.000
  Mass Reacted .............         0.000         0.000         0.000         0.000         0.000
  Initial Stored Mass ......         0.000         0.000         0.000         0.000         0.000
  Final Stored Mass ........       555.935       968.786        24.583         2.614        14.215
  Continuity Error (%) .....         1.845         1.681         1.443         1.215         1.352
  
  
  *************************
  Highest Continuity Errors
  *************************
  Node HS02004842 (10.96%)
  Node JK-storage (-10.42%)
  Node YS02001884 (8.42%)
  Node HS02004817 (2.13%)
  Node YSB1171 (1.97%)
  
  
  ***************************
  Time-Step Critical Elements
  ***************************
  Link WS02006252WS02006251 (73.05%)
  Link WS02006280WS02006229 (10.64%)
  Link YS02001793JiankangQianchi (3.56%)
  Link WS02004404WS02004405 (2.04%)
  Link WS02006238WS02006235 (1.79%)
  
  
  ********************************
  Highest Flow Instability Indexes
  ********************************
  Link WS02006113WS02006111 (35)
  Link WS02006111WS02006112 (28)
  Link YS02001619YS02001622 (25)
  Link YS02163301YS02001633 (25)
  Link YS02163601YS02164001 (24)
  
  
  *************************
  Routing Time Step Summary
  *************************
  Minimum Time Step           :     0.41 sec
  Average Time Step           :     1.10 sec
  Maximum Time Step           :     5.00 sec
  Percent in Steady State     :    -0.00
  Average Iterations per Step :     3.69
  Percent Not Converging      :    14.00
  
  
  ***************************
  Subcatchment Runoff Summary
  ***************************
  
  ------------------------------------------------------------------------------------------------------------------------------
                            Total      Total      Total      Total     Imperv       Perv      Total       Total     Peak  Runoff
                           Precip      Runon       Evap      Infil     Runoff     Runoff     Runoff      Runoff   Runoff   Coeff
  Subcatchment                 mm         mm         mm         mm         mm         mm         mm    10^6 ltr      LPS
  ------------------------------------------------------------------------------------------------------------------------------
  sub0                      16.73       0.00       0.00       0.71      15.51       0.47      15.98        0.01     3.87   0.955
  sub1                      16.73       0.00       0.00       1.18      14.80       0.66      15.46        0.10    26.74   0.924
  sub2                      16.73       0.00       0.00       4.79      10.46       1.40      11.85        0.11    25.81   0.708
  sub3                      16.73       0.00       0.00       5.01      10.42       1.18      11.60        0.26    56.97   0.693
  sub4                      16.73       0.00       0.00       1.28      14.64       0.56      15.20        0.32    66.74   0.909
  sub5                      16.73       0.00       0.00       0.73      15.46       0.44      15.91        0.18    46.91   0.951
  sub7                      16.73       0.00       0.00       0.93      15.16       0.58      15.74        0.05    14.85   0.941
  sub8                      16.73       0.00       0.00       0.94      15.15       0.57      15.72        0.10    27.42   0.940
  sub9                      16.73       0.00       0.00       0.94      15.15       0.57      15.72        0.08    20.52   0.940
  sub10                     16.73       0.00       0.00       0.83      15.30       0.50      15.81        0.17    46.04   0.945
  sub11                     16.73       0.00       0.00       0.83      15.32       0.51      15.83        0.18    50.62   0.947
  sub12                     16.73       0.00       0.00       1.34      14.51       0.83      15.34        0.13    39.22   0.917
  sub14                     16.73       0.00       0.00       0.94      15.15       0.57      15.72        0.15    40.40   0.939
  sub15                     16.73       0.00       0.00       3.54      11.65       1.48      13.13        0.23    57.86   0.785
  sub16                     16.73       0.00       0.00       3.72      11.17       1.80      12.97        0.14    37.34   0.776
  sub17                     16.73       0.00       0.00       3.62      11.33       1.73      13.07        0.11    30.57   0.781
  sub22                     16.73       0.00       0.00       5.27       9.49       1.92      11.42        0.72   183.11   0.683
  sub23                     16.73       0.00       0.00       4.37      10.50       1.82      12.32        0.59   153.57   0.736
  sub60                     16.73       0.00       0.00       1.74      12.78       0.27      13.05        3.96   446.24   0.780
  sub61                     16.73       0.00       0.00       2.46      12.72       0.38      13.11        4.04   542.53   0.784
  sub62                     16.73       0.00       0.00       1.06      13.91       0.27      14.19        4.36   558.01   0.848
  sub63                     16.73       0.00       0.00       4.39      11.06       0.46      11.52        3.49   496.40   0.689
  sub64                     16.73       0.00       0.00       2.23      12.28       0.28      12.56        3.82   424.95   0.751
  sub65                     16.73       0.00       0.00       1.91      12.51       0.27      12.77        3.93   431.32   0.764
  sub66                     16.73       0.00       0.00       4.54      10.46       0.31      10.78        3.31   388.44   0.644
  sub67                     16.73       0.00       0.00       1.01      14.45       0.32      14.78        4.56   675.76   0.883
  sub68                     16.73       0.00       0.00       1.95      13.33       0.39      13.71        4.22   589.75   0.820
  sub69                     16.73       0.00       0.00       2.00      13.62       0.51      14.12        3.30   542.07   0.844
  sub70                     16.73      14.42       0.00       8.47      19.01       2.12      21.13        4.84   534.50   0.678
  sub71                     16.73       0.00       0.00       1.08      13.65       0.25      13.90        3.28   394.68   0.831
  sub72                     16.73       0.00       0.00       1.02      11.50       0.15      11.65        2.37   206.66   0.697
  1                         16.73      20.58       0.00       1.37      22.38       7.20      29.58        6.95   612.18   0.793
  2                         16.73       0.00       0.00       3.02       4.04       3.18       7.22        2.89   331.58   0.431
  
  
  ****************************
  Subcatchment Washoff Summary
  ****************************
  
  ------------------------------------------------------------------------------------------
                                 COD            SS            TN            TP         NH4-N
  Subcatchment                    kg            kg            kg            kg            kg
  ------------------------------------------------------------------------------------------
  sub0                         3.641         7.161         0.064         0.005         0.031
  sub1                        15.670        31.767         0.296         0.021         0.143
  sub2                        10.304        20.454         0.214         0.015         0.099
  sub3                        25.293        49.815         0.517         0.036         0.240
  sub4                        36.168        74.260         0.714         0.044         0.344
  sub5                        35.763        71.366         0.649         0.050         0.316
  sub7                         7.894        16.212         0.150         0.010         0.073
  sub8                        11.755        24.726         0.234         0.014         0.113
  sub9                        10.113        20.966         0.196         0.013         0.095
  sub10                       29.347        59.341         0.545         0.040         0.265
  sub11                       28.395        58.052         0.536         0.037         0.260
  sub12                       24.463        49.072         0.450         0.034         0.218
  sub14                       21.697        44.543         0.414         0.028         0.200
  sub15                       29.696        58.821         0.572         0.042         0.270
  sub16                       19.246        38.050         0.367         0.028         0.174
  sub17                       17.687        34.653         0.330         0.026         0.156
  sub22                       95.915       186.896         1.820         0.139         0.857
  sub23                       54.382       109.539         1.141         0.076         0.527
  sub60                      353.947       679.509         6.988         0.437         3.357
  sub61                      439.695       840.113         8.188         0.570         3.952
  sub62                      449.790       873.119         8.744         0.564         4.209
  sub63                      328.186       618.356         6.505         0.463         3.037
  sub64                      450.924       835.563         8.299         0.611         3.976
  sub65                      460.537       856.688         8.527         0.617         4.090
  sub66                      259.427       485.147         5.248         0.348         2.463
  sub67                      667.181      1281.068        12.075         0.900         5.853
  sub68                      479.473       924.467         9.153         0.628         4.389
  sub69                      429.286       835.450         8.068         0.576         3.873
  sub70                      758.301      1478.311        15.194         1.074         7.173
  sub71                      296.268       580.620         6.027         0.356         2.890
  sub72                      247.759       452.374         4.612         0.320         2.223
  1                          576.917      1130.968        11.723         0.829         5.484
  2                           65.566       118.435         1.802         0.109         0.773
  ------------------------------------------------------------------------------------------
  System                    6740.687     12945.882       130.363         9.060        62.122
  
  
  ******************
  Node Depth Summary
  ******************
  
  ---------------------------------------------------------------------------------
                                 Average  Maximum  Maximum  Time of Max    Reported
                                   Depth    Depth      HGL   Occurrence   Max Depth
  Node                 Type       Meters   Meters   Meters  days hr:min      Meters
  ---------------------------------------------------------------------------------
  WS02001211           JUNCTION     0.78     0.85     5.69     0  02:01        0.85
  WS02001212           JUNCTION     0.49     0.58     5.64     0  02:02        0.58
  WS02001213           JUNCTION     0.74     0.86     5.62     0  02:01        0.86
  WS02003069           JUNCTION     0.55     0.72     5.31     0  02:01        0.72
  WS02003072           JUNCTION     0.61     0.77     5.14     0  02:01        0.77
  WS02003073           JUNCTION     0.37     0.48     4.55     0  02:02        0.48
  WS02003060           JUNCTION     0.49     0.64     5.57     0  02:00        0.64
  WS02003066           JUNCTION     0.27     0.39     5.94     0  01:55        0.39
  WS02003059           JUNCTION     0.79     0.91     5.60     0  02:01        0.91
  WS02003067           JUNCTION     0.64     0.83     6.15     0  01:54        0.83
  WS02004401           JUNCTION     0.79     1.31     7.31     0  01:52        1.29
  WS02004402           JUNCTION     0.81     1.30     7.26     0  01:52        1.27
  WS02004403           JUNCTION     0.83     1.27     7.20     0  01:52        1.24
  WS02004404           JUNCTION     0.90     1.32     7.17     0  01:52        1.28
  WS02004406           JUNCTION     0.89     1.20     7.03     0  01:52        1.19
  WS02004409           JUNCTION     0.60     0.98     6.75     0  01:55        0.98
  WS02004410           JUNCTION     0.61     0.97     6.69     0  01:55        0.96
  WS02004411           JUNCTION     0.62     0.94     6.62     0  01:55        0.94
  WS02004412           JUNCTION     0.63     0.92     6.56     0  01:55        0.91
  WS02004413           JUNCTION     0.78     1.03     6.50     0  01:55        1.03
  WS02004405           JUNCTION     0.89     1.28     7.13     0  01:52        1.25
  WS02006109           JUNCTION     0.89     1.76     8.37     0  01:53        1.76
  WS02006110           JUNCTION     0.86     1.55     8.13     0  01:53        1.54
  WS02006111           JUNCTION     0.29     1.04     7.75     0  01:52        0.97
  WS02006112           JUNCTION     0.98     1.66     7.54     0  01:52        1.64
  WS02006113           JUNCTION     0.41     1.08     7.97     0  01:52        1.01
  WS02006115           JUNCTION     0.69     1.32     7.46     0  01:52        1.30
  WS02006116           JUNCTION     0.77     1.35     7.39     0  01:52        1.33
  WS02006230           JUNCTION     0.94     1.99     8.73     0  01:53        1.97
  WS02006231           JUNCTION     0.67     1.63     8.75     0  01:53        1.60
  WS02006232           JUNCTION     0.82     1.72     8.76     0  01:53        1.68
  WS02006234           JUNCTION     0.77     1.60     8.75     0  01:53        1.59
  WS02006235           JUNCTION     0.82     1.60     8.77     0  01:53        1.58
  WS02006238           JUNCTION     0.84     1.61     8.76     0  01:53        1.60
  WS02006240           JUNCTION     0.75     1.45     8.74     0  01:53        1.43
  WS02006242           JUNCTION     0.81     1.46     8.73     0  01:53        1.45
  WS02006243           JUNCTION     0.69     1.30     8.72     0  01:53        1.29
  WS02006245           JUNCTION     0.66     1.22     8.71     0  01:53        1.21
  WS02006247           JUNCTION     0.67     1.20     8.70     0  01:53        1.20
  WS02006248           JUNCTION     0.61     1.10     8.69     0  01:50        1.10
  WS02006249           JUNCTION     0.63     1.09     8.69     0  01:50        1.09
  WS02006239           JUNCTION     0.80     1.54     8.75     0  01:53        1.53
  WS02006251           JUNCTION     0.60     1.32     8.99     0  03:30        1.19
  WS02006252           JUNCTION     0.38     0.87     9.11     0  03:30        0.73
  WS02006253           JUNCTION     0.63     1.37     9.01     0  03:30        1.20
  WS02006256           JUNCTION     1.83     2.35     9.28     0  00:00        2.35
  WS02004138           JUNCTION     0.19     0.20     7.45     0  00:00        0.19
  WS02004139           JUNCTION     0.73     0.79     5.70     0  02:02        0.79
  WS02004407           JUNCTION     0.26     0.40     6.72     0  01:53        0.40
  WS02006228           JUNCTION     0.92     1.94     8.60     0  01:53        1.92
  WS02006229           JUNCTION     0.91     2.02     8.72     0  01:53        2.01
  WS02006280           JUNCTION     0.07     0.33     8.60     0  01:52        0.31
  WS02006284           JUNCTION     0.38     0.66     9.06     0  01:54        0.66
  WS02006287           JUNCTION     0.11     0.40     9.36     0  01:54        0.40
  WSF200               JUNCTION     0.27     0.44     5.68     0  01:55        0.44
  HS02004901           JUNCTION     0.13     0.38    10.21     0  01:53        0.38
  HS02004881           JUNCTION     0.01     0.05     9.08     0  01:54        0.05
  HS02004876           JUNCTION     0.05     0.17     9.20     0  01:54        0.17
  HS02004870           JUNCTION     0.02     0.10     9.38     0  01:54        0.10
  HS02004862           JUNCTION     0.02     0.11     9.50     0  01:55        0.11
  HS02004856           JUNCTION     0.08     0.15     9.58     0  01:54        0.15
  HS02004852           JUNCTION     0.01     0.08     9.59     0  01:54        0.08
  HS02004848           JUNCTION     0.01     0.07     9.67     0  01:54        0.07
  HS02004842           JUNCTION     0.34     0.40     9.67     0  01:54        0.40
  HS02004837           JUNCTION     0.03     0.09     9.67     0  01:54        0.09
  HS02004830           JUNCTION     0.04     0.11     9.58     0  01:55        0.11
  HS02004824           JUNCTION     0.03     0.15     9.55     0  01:54        0.15
  HS02004817           JUNCTION     0.45     0.71     9.56     0  01:54        0.71
  HS02004807           JUNCTION     0.13     0.38     9.55     0  01:55        0.38
  HS02004802           JUNCTION     0.17     0.41     9.54     0  01:55        0.41
  HS02004799           JUNCTION     0.13     0.48     9.69     0  01:53        0.48
  HS02004792           JUNCTION     0.04     0.22     9.75     0  01:53        0.22
  HS02004788           JUNCTION     0.03     0.16    10.06     0  01:54        0.16
  HS02004785           JUNCTION     0.05     0.25    10.15     0  01:53        0.25
  HS02004777           JUNCTION     0.16     0.40    10.20     0  01:53        0.40
  HS02004770           JUNCTION     0.13     0.37    10.21     0  01:53        0.37
  HS02004480           JUNCTION     0.09     0.39     9.64     0  01:53        0.39
  HS02004479           JUNCTION     0.13     0.43     9.64     0  01:53        0.43
  HS02004478           JUNCTION     0.07     0.29     9.52     0  01:54        0.29
  YS02001745           JUNCTION     0.78     0.94     8.46     0  03:01        0.94
  YS02001748           JUNCTION     1.19     1.89     8.97     0  01:47        1.37
  YS02001751           JUNCTION     1.37     1.89     8.76     0  01:47        1.56
  YS02001754           JUNCTION     1.63     1.93     8.54     0  01:47        1.83
  YS02001762           JUNCTION     1.83     2.04     8.44     0  02:12        2.03
  YS02001765           JUNCTION     1.78     1.99     8.44     0  02:12        1.97
  YS02001767           JUNCTION     1.74     1.94     8.43     0  02:12        1.93
  YS02001770           JUNCTION     1.74     1.92     8.42     0  02:12        1.92
  YS02001774           JUNCTION     1.80     1.98     8.40     0  02:14        1.97
  YS02001779           JUNCTION     1.55     1.68     8.37     0  01:51        1.68
  YS02001882           JUNCTION     0.65     1.83     8.55     0  01:48        1.63
  YS02001884           JUNCTION     0.75     1.82     8.44     0  01:48        1.73
  YS02001759           JUNCTION     1.86     2.08     8.44     0  02:12        2.06
  YS02001887           JUNCTION     0.83     1.85     8.39     0  01:48        1.81
  YS02001890           JUNCTION     0.86     1.81     8.32     0  01:50        1.81
  YS02001898           JUNCTION     0.62     1.57     8.31     0  01:51        1.56
  YS02001901           JUNCTION     0.74     1.68     8.29     0  01:58        1.67
  YS02001904           JUNCTION     0.72     1.64     8.27     0  01:51        1.64
  YS02001907           JUNCTION     1.05     1.96     8.25     0  01:51        1.96
  YS02001910           JUNCTION     0.84     1.85     8.36     0  01:51        1.80
  YS02001915           JUNCTION     0.64     1.71     8.42     0  01:51        1.64
  YS02001918           JUNCTION     0.38     1.48     8.54     0  01:51        1.37
  YS02001619           JUNCTION     1.33     1.55     8.48     0  01:45        1.48
  YS02001629           JUNCTION     1.69     1.85     8.40     0  01:46        1.84
  YS02001641           JUNCTION     1.78     1.95     8.39     0  06:31        1.93
  YS02001644           JUNCTION     1.79     1.92     8.35     0  01:48        1.92
  YS02001652           JUNCTION     1.64     2.00     8.60     0  04:14        1.86
  YS02001655           JUNCTION     1.40     1.89     8.74     0  04:14        1.66
  YS02001920           JUNCTION     0.49     1.61     8.62     0  01:51        1.47
  YS02001923           JUNCTION     0.31     1.41     8.67     0  01:51        1.25
  YS02001926           JUNCTION     0.35     1.38     8.83     0  01:51        1.14
  YS02001929           JUNCTION     0.22     0.98     8.68     0  01:52        0.97
  YS02001658           JUNCTION     1.12     1.79     8.94     0  04:14        1.41
  YS02001661           JUNCTION     0.88     1.75     9.16     0  04:14        1.22
  YS02001664           JUNCTION     0.39     0.57     8.49     0  04:17        0.57
  YS02001622           JUNCTION     1.35     1.55     8.45     0  01:45        1.50
  YS02001633           JUNCTION     1.78     1.98     8.43     0  06:31        1.94
  YS02001649           JUNCTION     1.84     2.05     8.44     0  04:03        2.03
  YS02001757           JUNCTION     1.96     2.16     8.43     0  03:01        2.16
  YS02001895           JUNCTION     0.62     1.57     8.31     0  02:03        1.56
  YS02001625           JUNCTION     1.64     1.78     8.38     0  01:45        1.78
  YS02163301           JUNCTION     1.72     1.91     8.42     0  06:31        1.88
  YS02163601           JUNCTION     1.83     2.02     8.42     0  06:31        1.98
  YS02164001           JUNCTION     1.77     1.95     8.41     0  06:31        1.91
  YS02001647           JUNCTION     1.62     1.80     8.41     0  04:12        1.78
  YSB1154              JUNCTION     0.27     0.58     9.64     0  01:53        0.58
  YSB6556              JUNCTION     0.16     0.47     9.64     0  01:53        0.47
  YSB1174              JUNCTION     0.22     0.53     9.64     0  01:53        0.53
  YSB1171              JUNCTION     0.42     0.74     9.64     0  01:53        0.74
  YS02006553           JUNCTION     1.05     1.97     8.25     0  02:06        1.97
  YS02006561           JUNCTION     0.38     1.14     7.80     0  01:50        1.08
  YS02006556           JUNCTION     1.02     1.93     8.25     0  02:12        1.93
  YS02006558           JUNCTION     1.06     1.98     8.24     0  02:14        1.97
  YS02001783           JUNCTION     0.61     1.63     7.77     0  01:45        1.47
  YS02001784           JUNCTION     0.62     1.49     7.56     0  01:50        1.41
  YS02001786           JUNCTION     0.55     1.35     7.38     0  01:45        1.26
  YS02001788           JUNCTION     0.46     1.35     7.33     0  01:45        1.14
  YS02001790           JUNCTION     0.57     1.96     7.60     0  06:21        1.31
  YS02001791           JUNCTION     0.53     1.60     7.07     0  06:21        1.29
  YS02001793           JUNCTION     0.72     1.91     6.74     0  06:21        1.82
  WSC                  OUTFALL      0.37     0.48     1.15     0  02:02        0.48
  JK-storage           STORAGE      2.85     5.80     6.60     0  01:44        5.80
  CC-storage           STORAGE      1.21     1.42     8.42     0  03:02        1.42
  XR-storage           STORAGE      7.14     7.72     5.72     0  02:07        7.72
  
  
  *******************
  Node Inflow Summary
  *******************
  
  -------------------------------------------------------------------------------------------------
                                  Maximum  Maximum                  Lateral       Total        Flow
                                  Lateral    Total  Time of Max      Inflow      Inflow     Balance
                                   Inflow   Inflow   Occurrence      Volume      Volume       Error
  Node                 Type           LPS      LPS  days hr:min    10^6 ltr    10^6 ltr     Percent
  -------------------------------------------------------------------------------------------------
  WS02001211           JUNCTION      7.35   389.55     0  03:20       0.207        10.3       0.390
  WS02001212           JUNCTION      0.00   391.71     0  03:20           0        10.3       0.232
  WS02001213           JUNCTION      0.00   393.53     0  03:19           0        10.2       0.275
  WS02003069           JUNCTION      0.32  1344.93     0  02:00     0.00902        22.4       0.146
  WS02003072           JUNCTION      0.00  1344.96     0  02:01           0        22.3       0.178
  WS02003073           JUNCTION      1.82  1347.16     0  02:01      0.0514        22.4       0.204
  WS02003060           JUNCTION     16.53  1344.53     0  02:00       0.466        22.4       0.138
  WS02003066           JUNCTION      0.00   958.00     0  01:55           0        11.8       0.034
  WS02003059           JUNCTION      0.00   396.14     0  03:19           0        10.2       0.383
  WS02003067           JUNCTION      0.00   957.69     0  01:55           0        11.8       0.073
  WS02004401           JUNCTION      0.00   970.82     0  01:53           0          12       0.157
  WS02004402           JUNCTION      0.00   970.86     0  01:53           0          12       0.151
  WS02004403           JUNCTION      0.00   971.31     0  01:53           0        11.9       0.138
  WS02004404           JUNCTION      0.16   971.83     0  01:53     0.00457        11.9       0.105
  WS02004406           JUNCTION      0.00   972.67     0  01:53           0        11.9       0.257
  WS02004409           JUNCTION      0.00   971.08     0  01:53           0        11.9       0.118
  WS02004410           JUNCTION      0.00   958.88     0  01:54           0        11.8       0.136
  WS02004411           JUNCTION      0.00   956.10     0  01:55           0        11.8       0.142
  WS02004412           JUNCTION      0.00   957.54     0  01:55           0        11.8       0.156
  WS02004413           JUNCTION      0.00   957.70     0  01:55           0        11.8       0.237
  WS02004405           JUNCTION      0.04   973.51     0  01:53     0.00107        11.9       0.161
  WS02006109           JUNCTION      1.23   938.96     0  01:53      0.0347          12       0.169
  WS02006110           JUNCTION      0.00   939.19     0  01:53           0          12       0.145
  WS02006111           JUNCTION      0.00   938.97     0  01:53           0        11.9       0.022
  WS02006112           JUNCTION     30.57   969.38     0  01:53       0.112          12       0.209
  WS02006113           JUNCTION      0.00   939.02     0  01:53           0        11.9       0.074
  WS02006115           JUNCTION      0.00   969.10     0  01:53           0          12       0.142
  WS02006116           JUNCTION      0.00   970.26     0  01:53           0          12       0.141
  WS02006230           JUNCTION     10.28   533.01     0  06:34        0.29        8.88       0.143
  WS02006231           JUNCTION      0.00   522.77     0  06:34           0         8.6       0.067
  WS02006232           JUNCTION      0.00   522.69     0  06:36           0        8.61       0.173
  WS02006234           JUNCTION      0.00   523.28     0  06:34           0        8.61       0.070
  WS02006235           JUNCTION      0.00   524.75     0  06:34           0        8.66       0.103
  WS02006238           JUNCTION      0.00   418.20     0  04:30           0        5.26       0.114
  WS02006240           JUNCTION      0.00   417.14     0  04:30           0        5.25       0.191
  WS02006242           JUNCTION      0.00   416.79     0  04:30           0        5.25       0.246
  WS02006243           JUNCTION      0.00   416.40     0  04:30           0        5.24       0.123
  WS02006245           JUNCTION      0.00   416.36     0  04:30           0        5.24       0.156
  WS02006247           JUNCTION      0.00   415.89     0  04:30           0        5.24       0.120
  WS02006248           JUNCTION      0.00   416.16     0  04:30           0        5.26       0.068
  WS02006249           JUNCTION      0.00   495.93     0  02:20           0        5.95       0.141
  WS02006239           JUNCTION      0.00   418.03     0  04:30           0        5.25       0.133
  WS02006251           JUNCTION      0.08   494.62     0  02:20     0.00217        5.99       0.138
  WS02006252           JUNCTION      0.00   400.00     0  02:20           0        5.34       0.005
  WS02006253           JUNCTION      3.87   156.77     0  01:54      0.0129       0.649       0.435
  WS02006256           JUNCTION      0.00   983.00     0  00:00           0        12.1      -0.005
  WS02004138           JUNCTION      0.00   380.00     0  00:00           0        10.1       0.064
  WS02004139           JUNCTION      0.32   396.51     0  00:00     0.00905        10.1       0.444
  WS02004407           JUNCTION      0.00   973.16     0  01:53           0        11.9       0.053
  WS02006228           JUNCTION      0.00   938.28     0  01:53           0          12       0.125
  WS02006229           JUNCTION      0.00   994.23     0  01:52           0          12       0.103
  WS02006280           JUNCTION      0.00   736.09     0  01:54           0        3.11       0.013
  WS02006284           JUNCTION      0.10   735.84     0  01:54      0.0027        3.11       0.019
  WS02006287           JUNCTION      0.00   735.65     0  01:54           0        3.11       0.023
  WSF200               JUNCTION      0.00   958.05     0  01:56           0        11.8       0.031
  HS02004901           JUNCTION     37.34    37.34     0  01:51       0.136       0.136       1.311
  HS02004881           JUNCTION     14.85   153.29     0  01:54       0.053       0.601       0.108
  HS02004876           JUNCTION     26.74   139.06     0  01:54       0.103       0.549       0.099
  HS02004870           JUNCTION     27.42   112.65     0  01:54         0.1       0.446       0.025
  HS02004862           JUNCTION     26.01    86.18     0  01:54       0.116       0.346       0.050
  HS02004856           JUNCTION     20.52    60.23     0  01:54      0.0756       0.231       0.629
  HS02004852           JUNCTION      0.00    40.37     0  01:54           0       0.155       0.036
  HS02004848           JUNCTION     56.97    56.97     0  01:56       0.261       0.261       0.018
  HS02004842           JUNCTION      0.00    18.18     0  02:06           0       0.119      12.306
  HS02004837           JUNCTION     52.39    67.87     0  01:54       0.353       0.459       0.177
  HS02004830           JUNCTION      0.15    67.98     0  01:54     0.00423       0.449       0.275
  HS02004824           JUNCTION     66.79   134.69     0  01:56       0.318       0.767       0.071
  HS02004817           JUNCTION      0.60   136.96     0  01:57      0.0169       0.783       2.175
  HS02004807           JUNCTION     50.62   184.18     0  01:55       0.184       0.952       0.461
  HS02004802           JUNCTION      0.00   183.92     0  01:56           0        0.95       0.414
  HS02004799           JUNCTION     40.40   470.75     0  01:53        0.15        1.87       0.160
  HS02004792           JUNCTION    183.39   430.98     0  01:53       0.729        1.72       0.023
  HS02004788           JUNCTION     59.53   248.80     0  01:53       0.273       0.991       0.039
  HS02004785           JUNCTION      0.15   189.56     0  01:53     0.00423        0.72       0.069
  HS02004777           JUNCTION      0.03   189.71     0  01:52    0.000846        0.72       0.728
  HS02004770           JUNCTION    153.57   190.37     0  01:52       0.587       0.722       0.429
  HS02004480           JUNCTION      0.00   554.34     0  01:53           0        2.18       0.044
  HS02004479           JUNCTION      0.00    83.75     0  01:53           0       0.323       0.228
  HS02004478           JUNCTION      0.00   735.60     0  01:54           0        3.11       0.010
  YS02001745           JUNCTION    446.25   446.25     0  02:16        3.95        3.95       0.260
  YS02001748           JUNCTION      0.04   451.77     0  02:16     0.00127        3.95       0.583
  YS02001751           JUNCTION      0.01   452.10     0  02:16     0.00031        3.92       0.612
  YS02001754           JUNCTION      0.26   452.47     0  02:16     0.00733        3.91       0.630
  YS02001762           JUNCTION      0.00   433.79     0  01:55           0        2.27       0.943
  YS02001765           JUNCTION      0.00   434.46     0  01:55           0        2.27       1.075
  YS02001767           JUNCTION      0.54   433.67     0  01:55      0.0151        2.29       1.576
  YS02001770           JUNCTION    558.16   668.18     0  03:01        4.36        5.14       0.606
  YS02001774           JUNCTION      0.00   668.19     0  03:01           0        3.61       0.692
  YS02001779           JUNCTION      0.01   668.21     0  03:01    0.000141        3.58       0.434
  YS02001882           JUNCTION      0.00    62.44     0  01:48           0       0.033       6.861
  YS02001884           JUNCTION      0.00    70.51     0  01:47           0      0.0726       9.193
  YS02001759           JUNCTION    542.57   878.72     0  01:56        4.04         5.5       0.416
  YS02001887           JUNCTION    676.21   677.00     0  02:12        4.57        4.61       0.177
  YS02001890           JUNCTION      0.00   677.58     0  02:12           0        4.56       0.200
  YS02001898           JUNCTION      0.00   526.56     0  01:51           0        4.27       0.060
  YS02001901           JUNCTION      0.00   527.63     0  01:51           0        4.27       0.167
  YS02001904           JUNCTION      0.00   528.28     0  01:51           0        4.26       0.141
  YS02001907           JUNCTION      0.00  1170.59     0  01:52           0        9.98       0.236
  YS02001910           JUNCTION      0.00   656.39     0  01:52           0        5.74       0.203
  YS02001915           JUNCTION    394.70   655.93     0  01:52        3.28        5.79       0.106
  YS02001918           JUNCTION      0.00   373.87     0  01:52           0        2.54       0.068
  YS02001619           JUNCTION    388.44   388.44     0  02:16         3.3         3.3       0.362
  YS02001629           JUNCTION      0.00   220.10     0  01:48           0        1.43       2.040
  YS02001641           JUNCTION      0.00   456.71     0  01:48           0        5.09       0.408
  YS02001644           JUNCTION    424.99  1498.32     0  03:01        3.82        13.3       0.197
  YS02001652           JUNCTION      0.00   519.49     0  02:12           0        3.44       0.675
  YS02001655           JUNCTION      0.15   519.26     0  02:12     0.00434        3.46       0.729
  YS02001920           JUNCTION      2.87   373.15     0  01:52      0.0809        2.52       0.127
  YS02001923           JUNCTION      0.04   304.55     0  01:53     0.00106        2.42       0.050
  YS02001926           JUNCTION      0.05   343.02     0  01:51     0.00147        2.39       0.112
  YS02001929           JUNCTION    206.66   206.66     0  03:01        2.37        2.38       0.024
  YS02001658           JUNCTION      0.00   518.94     0  02:12           0        3.48       0.694
  YS02001661           JUNCTION      0.00   742.45     0  01:55           0        3.81      -0.084
  YS02001664           JUNCTION    496.40   496.40     0  02:16        3.49        3.82       0.128
  YS02001622           JUNCTION      0.00   389.10     0  02:16           0        3.29       0.977
  YS02001633           JUNCTION    431.52   456.71     0  01:48        3.93        5.24       0.612
  YS02001649           JUNCTION      0.00  1004.81     0  01:52           0        6.99       0.535
  YS02001757           JUNCTION      0.00  2146.72     0  01:55           0          11       0.830
  YS02001895           JUNCTION      0.00   525.35     0  01:51           0        4.27       0.127
  YS02001625           JUNCTION      0.00   436.88     0  02:16           0        3.34       1.183
  YS02163301           JUNCTION      0.00   221.45     0  01:45           0        1.42       1.709
  YS02163601           JUNCTION      0.11   456.54     0  01:48      0.0031        5.11       0.590
  YS02164001           JUNCTION      0.00   456.25     0  01:48           0        5.09       0.394
  YS02001647           JUNCTION      0.00   737.95     0  03:01           0        5.97       0.473
  YSB1154              JUNCTION     46.91    46.91     0  01:52        0.18       0.181       0.805
  YSB6556              JUNCTION      0.00    46.63     0  01:52           0       0.182       0.696
  YSB1174              JUNCTION     39.22    39.22     0  01:50       0.134       0.134       0.962
  YSB1171              JUNCTION      0.00    84.02     0  01:52           0       0.322       2.011
  YS02006553           JUNCTION      0.00   716.37     0  03:35           0        7.29       0.206
  YS02006561           JUNCTION      0.00   982.88     0  02:16           0        11.5       0.010
  YS02006556           JUNCTION      0.00   715.93     0  03:35           0        7.29       0.150
  YS02006558           JUNCTION    590.63   983.73     0  02:13        4.24        11.5       0.040
  YS02001783           JUNCTION      0.00   982.65     0  02:12           0        11.5       0.019
  YS02001784           JUNCTION      1.06   983.80     0  02:16      0.0299        11.5       0.030
  YS02001786           JUNCTION      0.06   983.99     0  02:16     0.00159        11.5       0.030
  YS02001788           JUNCTION      0.07   983.70     0  02:12       0.002        11.5       0.019
  YS02001790           JUNCTION      0.15   983.80     0  02:12     0.00437        11.5       0.013
  YS02001791           JUNCTION      0.00   983.76     0  02:12           0        11.5       0.002
  YS02001793           JUNCTION      0.00   984.43     0  02:12           0        11.5      -0.020
  WSC                  OUTFALL       0.00  1347.76     0  02:02           0        22.3       0.000
  JK-storage           STORAGE       0.00   984.18     0  02:12           0        11.7      -9.433
  CC-storage           STORAGE       0.00  2149.16     0  01:55           0        8.86       0.702
  XR-storage           STORAGE    1054.62  1054.62     0  03:01        15.5        16.1      -0.001
  
  
  **********************
  Node Surcharge Summary
  **********************
  
  Surcharging occurs when water rises above the top of the highest conduit.
  ---------------------------------------------------------------------
                                               Max. Height   Min. Depth
                                   Hours       Above Crown    Below Rim
  Node                 Type      Surcharged         Meters       Meters
  ---------------------------------------------------------------------
  WS02004401           JUNCTION        1.32          0.314        1.346
  WS02004402           JUNCTION        1.35          0.298        1.442
  WS02004403           JUNCTION        1.36          0.272        1.758
  WS02004404           JUNCTION        1.48          0.316        2.464
  WS02004406           JUNCTION        1.44          0.205        2.245
  WS02004413           JUNCTION        0.46          0.031        2.169
  WS02004405           JUNCTION        1.46          0.284        2.516
  WS02006109           JUNCTION        5.05          0.935        0.885
  WS02006110           JUNCTION        2.52          0.638        1.212
  WS02006111           JUNCTION        0.34          0.231        1.639
  WS02006112           JUNCTION        2.92          0.660        1.020
  WS02006113           JUNCTION        0.38          0.276        1.654
  WS02006115           JUNCTION        0.76          0.309        1.941
  WS02006116           JUNCTION        0.82          0.293        1.997
  WS02006230           JUNCTION        2.34          0.908        0.662
  WS02006231           JUNCTION        2.75          0.916        0.614
  WS02006232           JUNCTION        5.01          1.016        0.464
  WS02006234           JUNCTION        4.59          0.878        0.362
  WS02006235           JUNCTION        4.84          0.894        0.396
  WS02006238           JUNCTION        4.90          0.894        0.536
  WS02006240           JUNCTION        4.42          0.736        0.654
  WS02006242           JUNCTION        4.54          0.733        0.087
  WS02006243           JUNCTION        3.53          0.587        0.183
  WS02006245           JUNCTION        3.24          0.512        0.338
  WS02006247           JUNCTION        3.25          0.495        0.265
  WS02006248           JUNCTION        3.03          0.380        0.000
  WS02006249           JUNCTION        3.08          0.390        0.000
  WS02006239           JUNCTION        4.60          0.798        0.492
  WS02006251           JUNCTION        1.59          0.288        0.892
  WS02006252           JUNCTION        3.21          0.469        0.631
  WS02006253           JUNCTION        1.81          0.330        2.150
  WS02006256           JUNCTION        6.80          2.050        0.000
  WS02006228           JUNCTION        5.02          1.114        1.086
  HS02004817           JUNCTION        0.15          0.011        1.729
  YS02001748           JUNCTION        6.04          0.809        0.381
  YS02001751           JUNCTION        6.08          0.886        0.314
  YS02001754           JUNCTION        6.14          0.883        0.267
  YS02001762           JUNCTION        6.19          1.040        0.110
  YS02001765           JUNCTION        6.18          0.993        0.107
  YS02001767           JUNCTION        6.18          0.943        0.087
  YS02001770           JUNCTION        6.18          0.891        0.029
  YS02001774           JUNCTION        6.19          0.977        0.073
  YS02001779           JUNCTION        6.13          0.680        0.000
  YS02001882           JUNCTION        1.80          0.830        0.000
  YS02001884           JUNCTION        1.82          0.759        0.111
  YS02001759           JUNCTION        6.20          1.079        0.131
  YS02001887           JUNCTION        1.88          0.801        0.149
  YS02001890           JUNCTION        1.89          0.760        0.000
  YS02001898           JUNCTION        1.77          0.541        0.199
  YS02001901           JUNCTION        1.85          0.678        0.192
  YS02001904           JUNCTION        1.83          0.638        0.212
  YS02001907           JUNCTION        2.40          0.950        0.000
  YS02001910           JUNCTION        1.93          0.850        0.250
  YS02001915           JUNCTION        1.80          0.706        0.294
  YS02001918           JUNCTION        1.65          0.478        0.332
  YS02001619           JUNCTION        6.09          0.547        0.063
  YS02001629           JUNCTION        6.08          0.470        0.000
  YS02001641           JUNCTION        6.18          0.950        0.150
  YS02001644           JUNCTION        6.18          0.920        0.000
  YS02001652           JUNCTION        6.15          0.972        0.158
  YS02001655           JUNCTION        6.10          0.892        0.308
  YS02001920           JUNCTION        1.67          0.613        0.527
  YS02001923           JUNCTION        0.01          0.205        0.615
  YS02001926           JUNCTION        0.01          0.380        0.520
  YS02001658           JUNCTION        6.05          0.795        0.505
  YS02001661           JUNCTION        0.09          0.682        0.708
  YS02001622           JUNCTION        6.10          0.549        0.071
  YS02001633           JUNCTION        6.17          0.958        0.102
  YS02001649           JUNCTION        6.19          1.050        0.000
  YS02001757           JUNCTION        6.23          1.165        0.045
  YS02001895           JUNCTION        1.78          0.568        0.182
  YS02001625           JUNCTION        6.15          0.780        0.000
  YS02163301           JUNCTION        6.17          0.908        0.122
  YS02163601           JUNCTION        6.20          1.023        0.057
  YS02164001           JUNCTION        6.17          0.949        0.151
  YS02001647           JUNCTION        6.15          0.797        0.103
  YS02006553           JUNCTION        2.46          0.970        0.220
  YS02006561           JUNCTION        1.69          0.336        0.814
  YS02006556           JUNCTION        2.11          0.895        0.455
  YS02006558           JUNCTION        2.08          0.878        0.522
  YS02001783           JUNCTION        1.93          0.831        0.769
  YS02001784           JUNCTION        1.91          0.690        0.800
  YS02001786           JUNCTION        1.85          0.554        0.876
  YS02001788           JUNCTION        1.80          0.552        0.928
  YS02001790           JUNCTION        2.48          1.157        0.000
  YS02001791           JUNCTION        2.57          0.801        1.119
  YS02001793           JUNCTION        2.84          0.908        1.692
  
  
  *********************
  Node Flooding Summary
  *********************
  
  Flooding refers to all water that overflows a node, whether it ponds or not.
  --------------------------------------------------------------------------
                                                             Total   Maximum
                                 Maximum   Time of Max       Flood    Ponded
                        Hours       Rate    Occurrence      Volume     Depth
  Node                 Flooded       LPS   days hr:min    10^6 ltr    Meters
  --------------------------------------------------------------------------
  WS02006248              0.22     65.46      0  01:54       0.022     0.000
  WS02006249              1.72    314.10      0  02:20       0.685     0.000
  WS02006256              4.48    978.40      0  00:00       8.611     0.000
  YS02001779              3.18    668.21      0  03:01       3.563     0.000
  YS02001882              0.01     24.08      0  01:48       0.000     0.000
  YS02001890              0.81    160.91      0  02:15       0.274     0.000
  YS02001907              1.53    713.95      0  02:16       2.680     0.000
  YS02001629              0.01     26.86      0  01:46       0.000     0.000
  YS02001644              4.73   1498.31      0  03:01      11.794     0.000
  YS02001649              0.01     16.47      0  04:14       0.000     0.000
  YS02001625              2.14    436.37      0  02:16       1.968     0.000
  YS02001790              0.01     75.27      0  06:21       0.000     0.000
  JK-storage              0.68    568.96      0  01:49       0.685     0.000
  XR-storage              4.67    674.59      0  03:01       5.097     0.000
  
  
  **********************
  Storage Volume Summary
  **********************
  
  --------------------------------------------------------------------------------------------------
                         Average     Avg  Evap Exfil       Maximum     Max    Time of Max    Maximum
                          Volume    Pcnt  Pcnt  Pcnt        Volume    Pcnt     Occurrence    Outflow
  Storage Unit           1000 m3    Full  Loss  Loss       1000 m3    Full    days hr:min        LPS
  --------------------------------------------------------------------------------------------------
  JK-storage               0.143      49     0     0         0.291     100       0  01:44     983.00
  CC-storage               3.379      22     0     0         3.960      25       0  03:02     400.00
  XR-storage               0.857      93     0     0         0.926     100       0  02:07     380.00
  
  
  ***********************
  Outfall Loading Summary
  ***********************
  
  ---------------------------------------------------------------------------------------------------------------------------------
                         Flow       Avg       Max       Total         Total         Total         Total         Total         Total
                         Freq      Flow      Flow      Volume           COD            SS            TN            TP         NH4-N
  Outfall Node           Pcnt       LPS       LPS    10^6 ltr            kg            kg            kg            kg            kg
  ---------------------------------------------------------------------------------------------------------------------------------
  WSC                   99.98    863.70   1347.76      22.313      2696.747      4827.617       144.577        16.443        85.942
  ---------------------------------------------------------------------------------------------------------------------------------
  System                99.98    863.70   1347.76      22.313      2696.747      4827.617       144.577        16.443        85.942
  
  
  ********************
  Link Flow Summary
  ********************
  
  -----------------------------------------------------------------------------
                                 Maximum  Time of Max   Maximum    Max/    Max/
                                  |Flow|   Occurrence   |Veloc|    Full    Full
  Link                 Type          LPS  days hr:min     m/sec    Flow   Depth
  -----------------------------------------------------------------------------
  WS02003066WSF200     CONDUIT    958.05     0  01:56      3.01    0.16    0.33
  WS02006287WS02006284 CONDUIT    735.74     0  01:54      2.45    0.34    0.41
  WS02006284WS02006280 CONDUIT    736.09     0  01:54      2.68    0.31    0.38
  WS02006280WS02006229 CONDUIT    741.15     0  01:52      4.20    0.16    0.58
  WS02006229WS02006228 CONDUIT    938.28     0  01:53      1.87    3.11    1.00
  WS02006256WS02006235 CONDUIT    288.60     0  00:00      4.23    3.05    1.00
  WS02006253WS02006251 CONDUIT    170.12     0  01:51      0.74    0.51    1.00
  WS02006252WS02006251 CONDUIT    403.71     0  06:34      3.21    1.48    1.00
  WS02006251WS02006249 CONDUIT    495.93     0  02:20      1.29    1.43    1.00
  WS02006249WS02006248 CONDUIT    416.16     0  04:30      1.14    2.28    1.00
  WS02006248WS02006247 CONDUIT    415.89     0  04:30      1.11    0.91    1.00
  WS02006247WS02006245 CONDUIT    416.36     0  04:30      1.08    3.30    1.00
  WS02006245WS02006243 CONDUIT    416.40     0  04:30      1.09    1.23    1.00
  WS02006243WS02006242 CONDUIT    416.79     0  04:30      1.08    0.89    1.00
  WS02006242WS02006240 CONDUIT    417.14     0  04:30      1.08    1.66    1.00
  WS02006240WS02006239 CONDUIT    418.03     0  04:30      1.09    1.32    1.00
  WS02006239WS02006238 CONDUIT    418.20     0  04:30      1.09    1.34    1.00
  WS02006238WS02006235 CONDUIT    418.21     0  04:30      1.46    0.93    1.00
  WS02006235WS02006234 CONDUIT    523.28     0  06:34      1.36    5.52    1.00
  WS02006234WS02006232 CONDUIT    522.69     0  06:36      1.39    1.06    1.00
  WS02006232WS02006231 CONDUIT    522.77     0  06:34      1.36    1.10    1.00
  WS02006231WS02006230 CONDUIT    522.73     0  06:34      1.41    7.93    1.00
  WS02006230WS02006229 CONDUIT    533.39     0  06:34      1.39   11.87    1.00
  WS02006228WS02006109 CONDUIT    937.73     0  01:53      1.87    4.10    1.00
  WS02006116WS02004401 CONDUIT    970.82     0  01:53      1.24    1.34    1.00
  WS02006115WS02006116 CONDUIT    970.26     0  01:53      1.24    1.25    1.00
  WS02006113WS02006111 CONDUIT    938.97     0  01:53      2.63    1.13    1.00
  WS02006112WS02006115 CONDUIT    969.10     0  01:53      1.23    0.57    1.00
  WS02006111WS02006112 CONDUIT    939.39     0  01:53      1.87    0.45    1.00
  WS02006110WS02006113 CONDUIT    939.02     0  01:53      1.87    0.85    1.00
  WS02006109WS02006110 CONDUIT    939.19     0  01:53      1.87    1.81    1.00
  WS02004411WS02004412 CONDUIT    957.54     0  01:55      1.26    1.36    0.93
  WS02004401WS02004402 CONDUIT    970.86     0  01:53      1.24    1.17    1.00
  WS02004413WS02003067 CONDUIT    957.69     0  01:55      1.57    0.41    0.72
  WS02004412WS02004413 CONDUIT    957.70     0  01:55      1.24    0.64    0.96
  WS02004410WS02004411 CONDUIT    956.10     0  01:55      1.24    1.31    0.95
  WS02004409WS02004410 CONDUIT    958.88     0  01:54      1.24    1.24    0.97
  WS02004407WS02004409 CONDUIT    971.08     0  01:53      1.74    0.34    0.69
  WS02004406WS02004407 CONDUIT    973.16     0  01:53      1.65    0.43    0.70
  WS02004405WS02004406 CONDUIT    972.67     0  01:53      1.24    1.92    1.00
  WS02004404WS02004405 CONDUIT    973.48     0  01:53      1.24    9.54    1.00
  WS02004403WS02004404 CONDUIT    971.67     0  01:53      1.24    0.70    1.00
  WS02004402WS02004403 CONDUIT    971.31     0  01:53      1.24    1.40    1.00
  WS02004139WS02001211 CONDUIT    382.20     0  03:20      0.90    0.48    0.64
  WS02004138WS02004139 CONDUIT    396.19     0  00:00      3.65    0.08    0.47
  WS02003067WS02003066 CONDUIT    958.00     0  01:55      1.67    0.31    0.51
  WS02001213WS02003059 CONDUIT    396.14     0  03:19      0.88    0.65    0.88
  WS02001212WS02001213 CONDUIT    393.53     0  03:19      1.32    0.61    0.56
  WS02001211WS02001212 CONDUIT    391.71     0  03:20      0.78    0.30    0.72
  WS02003072WS02003073 CONDUIT   1345.34     0  02:01      1.97    2.91    0.58
  WS02003069WS02003072 CONDUIT   1344.96     0  02:01      1.82    0.65    0.62
  WS02003060WS02003069 CONDUIT   1344.61     0  02:00      2.03    0.53    0.57
  WS02003059WS02003060 CONDUIT    399.45     0  03:18      0.95    0.26    0.78
  HS02004901HS02004770 CONDUIT     36.83     0  01:52      0.10    0.14    0.54
  HS02004876HS02004881 CONDUIT    139.08     0  01:54      1.26    1.48    0.16
  HS02004870HS02004876 CONDUIT    112.62     0  01:54      0.85    0.07    0.19
  HS02004842HS02004848 CONDUIT     18.18     0  02:06      0.08    0.01    0.34
  HS02004837HS02004842 CONDUIT     18.64     0  02:06      0.42    0.01    0.35
  HS02004830HS02004837 CONDUIT     67.83     0  01:54      0.68    0.07    0.14
  HS02004824HS02004830 CONDUIT     68.06     0  01:56      0.62    0.09    0.18
  HS02004817HS02004824 CONDUIT    136.36     0  01:57      0.32    0.06    0.60
  HS02004770HS02004777 CONDUIT    189.68     0  01:52      0.49    0.35    0.55
  HS02004799HS02004480 CONDUIT    470.64     0  01:53      1.09    0.59    0.62
  HS02004792HS02004799 CONDUIT    430.88     0  01:53      1.22    0.26    0.50
  HS02004788HS02004792 CONDUIT    248.73     0  01:54      1.29    0.16    0.28
  HS02004785HS02004788 CONDUIT    189.53     0  01:53      0.92    1.43    0.30
  HS02004777HS02004785 CONDUIT    189.41     0  01:53      0.59    0.23    0.46
  HS02004480HS02004478 CONDUIT    554.37     0  01:53      1.59    2.33    0.50
  HS02004479HS02004480 CONDUIT     83.71     0  01:53      0.37    0.08    0.59
  HS02004862HS02004870 CONDUIT     86.18     0  01:55      0.82    0.09    0.15
  HS02004848HS02004852 CONDUIT     40.37     0  01:54      0.54    0.05    0.11
  HS02004856HS02004862 CONDUIT     60.18     0  01:54      0.61    0.06    0.14
  HS02004852HS02004856 CONDUIT     40.43     0  01:55      0.35    0.05    0.17
  HS02004802HS02004478 CONDUIT    184.69     0  01:57      0.53    0.16    0.50
  HS02004478WS02006287 CONDUIT    735.65     0  01:54      2.18    0.21    0.38
  HS02004817HS02004807 CONDUIT    137.17     0  01:57      0.26    0.08    0.77
  HS02004807HS02004802 CONDUIT    183.92     0  01:56      0.47    0.35    0.56
  YS02001759YS02001757 CONDUIT    877.98     0  01:57      1.12    0.62    1.00
  YS02001762YS02001759 CONDUIT    434.27     0  01:55      0.55    0.50    1.00
  YS02001765YS02001762 CONDUIT    433.79     0  01:55      0.55    0.41    1.00
  YS02001770YS02001767 CONDUIT    433.14     0  01:55      0.55    1.72    1.00
  YS02001774YS02001770 CONDUIT    668.19     0  03:01      0.85    0.43    1.00
  YS02001779YS02001774 CONDUIT    668.21     0  03:01      0.85    0.34    1.00
  YS02001649YS02001757 CONDUIT   1005.55     0  01:52      1.28    0.61    1.00
  YS02001767YS02001765 CONDUIT    434.46     0  01:55      0.55    0.55    1.00
  YS02006561YS02001783 CONDUIT    982.65     0  02:12      2.14    0.51    1.00
  YS02001783YS02001784 CONDUIT    982.74     0  02:16      1.96    1.35    1.00
  YS02001784YS02001785 CONDUIT    983.93     0  02:16      1.96    2.29    1.00
  YS02001788YS02001790 CONDUIT    983.65     0  02:12      2.44    0.72    1.00
  YS02001790YS02001791 CONDUIT    983.76     0  02:12      2.91    1.07    1.00
  YS02001791YS02001793 CONDUIT    984.43     0  02:12      5.76    0.42    1.00
  YS02001910YS02001907 CONDUIT    657.14     0  01:52      0.84    0.37    1.00
  YS02001786YS02001788 CONDUIT    983.63     0  02:12      2.31    1.90    1.00
  YS02001915YS02001910 CONDUIT    656.39     0  01:52      0.84    0.33    1.00
  YS02001918YS02001915 CONDUIT    375.64     0  01:52      0.48    0.21    1.00
  YS02001923YS02001920 CONDUIT    370.28     0  01:52      0.82    0.17    1.00
  YS02001926YS02001923 CONDUIT    307.67     0  01:51      0.92    0.44    1.00
  YS02001929YS02001926 CONDUIT    256.19     0  01:52      0.98    0.12    0.99
  YS02001920YS02001918 CONDUIT    373.87     0  01:52      0.77    0.36    1.00
  YS02001629YS02163301 CONDUIT    221.45     0  01:45      0.28    0.27    1.00
  YS02001619YS02001622 CONDUIT    389.10     0  02:16      0.74    0.57    1.00
  YS02001622YS02001625 CONDUIT    388.70     0  02:16      0.49    0.21    1.00
  YS02001625YS02001629 CONDUIT    220.10     0  01:48      0.29    0.10    1.00
  YS02163301YS02001633 CONDUIT    223.39     0  01:45      0.28    0.21    1.00
  YS02163601YS02164001 CONDUIT    456.25     0  01:48      0.58    0.40    1.00
  YS02164001YS02001641 CONDUIT    456.71     0  01:48      0.58    0.62    1.00
  YS02001641YS02001644 CONDUIT    456.75     0  01:48      0.58    1.48    1.00
  YS02001647YS02001649 CONDUIT    737.95     0  03:01      0.94    0.39    1.00
  YS02006553YS02006556 CONDUIT    715.93     0  03:35      0.91    0.61    1.00
  YS02006556YS02006558 CONDUIT    716.37     0  03:35      0.91    0.57    1.00
  YSB6556YSB1171       CONDUIT     46.62     0  01:54      0.14    0.05    0.84
  YS02001907YS02006553 CONDUIT    716.37     0  03:35      0.80    0.84    1.00
  YS02006558YS02006561 CONDUIT    982.88     0  02:16      3.48    2.17    1.00
  YS02001633YS02163601 CONDUIT    456.43     0  01:48      0.58    0.48    1.00
  YS02001644YS02001647 CONDUIT    737.97     0  03:01      0.94    0.43    1.00
  YS02001745YS02001748 CONDUIT    451.72     0  02:16      1.67    0.17    0.97
  YS02001748YS02001751 CONDUIT    452.09     0  02:16      1.21    0.23    1.00
  YS02001751YS02001754 CONDUIT    452.21     0  02:16      1.02    0.22    1.00
  YS02001754YS02001757 CONDUIT    451.82     0  02:16      0.58    0.18    1.00
  YS02001882YS02001884 CONDUIT     62.44     0  01:48      0.16    0.07    1.00
  YS02001884YS02001887 CONDUIT     70.51     0  01:47      0.12    0.09    1.00
  YS02001890YS02001895 CONDUIT    525.35     0  01:51      0.67    0.24    1.00
  YS02001895YS02001898 CONDUIT    526.56     0  01:51      0.67    0.91    1.00
  YS02001898YS02001901 CONDUIT    527.63     0  01:51      0.67    0.34    1.00
  YS02001901YS02001904 CONDUIT    528.28     0  01:51      0.67    0.82    1.00
  YS02001904YS02001907 CONDUIT    526.70     0  01:51      0.67    0.18    1.00
  YS02001887YS02001890 CONDUIT    677.58     0  02:12      0.86    1.16    1.00
  YS02001652YS02001649 CONDUIT    520.58     0  02:09      0.71    0.26    1.00
  YS02001655YS02001652 CONDUIT    519.49     0  02:12      1.09    0.25    1.00
  YS02001658YS02001655 CONDUIT    519.10     0  02:12      1.41    0.22    1.00
  YS02001661YS02001658 CONDUIT    518.94     0  02:12      1.78    0.20    1.00
  YS02001664YS02001661 CONDUIT    742.45     0  01:55      1.69    0.23    0.76
  YSB1154YSB6556       CONDUIT     46.63     0  01:52      0.15    0.08    0.75
  YSB1174YSB1171       CONDUIT     38.38     0  01:50      0.11    0.06    0.87
  YSB1171HS02004479    CONDUIT     83.75     0  01:53      0.54    0.06    0.70
  HS02004881HS02006253 CONDUIT    153.29     0  01:54      2.70    0.03    0.54
  YS02001793JiankangQianchi CONDUIT    984.18     0  02:12     16.58    0.08    1.00
  YS02001757CaochengTiaoxuchi CONDUIT   2149.16     0  01:55      3.55    0.94    1.00
  WSF200WS02003060     CONDUIT    958.54     0  01:55      1.98    0.21    0.45
  1                    CONDUIT   1347.76     0  02:02      3.60    0.47    0.48
  CC-Pump-1            PUMP       200.00     0  02:20              1.00
  CC-Pump-2            PUMP       200.00     0  02:20              1.00
  JK-Pump-1            PUMP       300.00     0  00:00              1.00
  JK-Pump-2            PUMP       683.00     0  00:00              1.00
  XR-Pump-1            PUMP        95.00     0  00:00              1.00
  XR-Pump-2            PUMP        95.00     0  00:00              1.00
  XR-Pump-3            PUMP        95.00     0  00:00              1.00
  XR-Pump-4            PUMP        95.00     0  00:00              1.00
  
  
  ***************************
  Flow Classification Summary
  ***************************
  
  -------------------------------------------------------------------------------------
                      Adjusted    ---------- Fraction of Time in Flow Class ---------- 
                       /Actual         Up    Down  Sub   Sup   Up    Down  Norm  Inlet 
  Conduit               Length    Dry  Dry   Dry   Crit  Crit  Crit  Crit  Ltd   Ctrl  
  -------------------------------------------------------------------------------------
  WS02003066WSF200        1.00   0.01  0.05  0.00  0.00  0.94  0.00  0.00  0.42  0.00
  WS02006287WS02006284    1.00   0.03  0.01  0.00  0.63  0.34  0.00  0.00  0.63  0.00
  WS02006284WS02006280    1.00   0.03  0.00  0.00  0.00  0.00  0.00  0.97  0.00  0.00
  WS02006280WS02006229    1.00   0.03  0.00  0.00  0.02  0.03  0.00  0.91  0.02  0.00
  WS02006229WS02006228    1.00   0.00  0.00  0.00  1.00  0.00  0.00  0.00  0.00  0.00
  WS02006256WS02006235    1.00   0.00  0.00  0.00  1.00  0.00  0.00  0.00  0.00  0.00
  WS02006253WS02006251    1.00   0.01  0.01  0.00  0.97  0.00  0.01  0.00  0.00  0.00
  WS02006252WS02006251    1.00   0.08  0.00  0.00  0.20  0.01  0.71  0.00  0.00  0.00
  WS02006251WS02006249    1.00   0.00  0.00  0.00  1.00  0.00  0.00  0.00  0.16  0.00
  WS02006249WS02006248    1.00   0.00  0.01  0.00  0.95  0.00  0.04  0.00  0.00  0.00
  WS02006248WS02006247    1.00   0.01  0.00  0.00  0.98  0.00  0.00  0.01  0.04  0.00
  WS02006247WS02006245    1.00   0.01  0.00  0.00  0.97  0.00  0.00  0.02  0.00  0.00
  WS02006245WS02006243    1.00   0.00  0.00  0.00  0.96  0.00  0.00  0.03  0.01  0.00
  WS02006243WS02006242    1.00   0.00  0.00  0.00  0.99  0.00  0.00  0.00  0.18  0.00
  WS02006242WS02006240    1.00   0.00  0.00  0.00  0.99  0.00  0.01  0.00  0.00  0.00
  WS02006240WS02006239    1.00   0.00  0.00  0.00  0.96  0.00  0.00  0.04  0.01  0.00
  WS02006239WS02006238    1.00   0.00  0.00  0.00  1.00  0.00  0.00  0.00  0.12  0.00
  WS02006238WS02006235    1.00   0.00  0.00  0.00  1.00  0.00  0.00  0.00  0.00  0.00
  WS02006235WS02006234    1.00   0.00  0.00  0.00  0.97  0.00  0.03  0.00  0.00  0.00
  WS02006234WS02006232    1.00   0.00  0.00  0.00  1.00  0.00  0.00  0.00  0.08  0.00
  WS02006232WS02006231    1.00   0.00  0.00  0.00  1.00  0.00  0.00  0.00  0.00  0.00
  WS02006231WS02006230    1.00   0.00  0.00  0.00  0.80  0.00  0.20  0.00  0.00  0.00
  WS02006230WS02006229    1.00   0.00  0.00  0.00  1.00  0.00  0.00  0.00  0.01  0.00
  WS02006228WS02006109    1.00   0.00  0.00  0.00  1.00  0.00  0.00  0.00  0.00  0.00
  WS02006116WS02004401    1.00   0.01  0.00  0.00  0.99  0.00  0.00  0.00  0.01  0.00
  WS02006115WS02006116    1.00   0.01  0.00  0.00  0.97  0.00  0.00  0.02  0.01  0.00
  WS02006113WS02006111    1.00   0.01  0.00  0.00  0.06  0.93  0.00  0.00  0.11  0.00
  WS02006112WS02006115    1.00   0.01  0.00  0.00  0.99  0.00  0.00  0.00  0.00  0.00
  WS02006111WS02006112    1.00   0.01  0.00  0.00  0.99  0.00  0.00  0.00  0.79  0.00
  WS02006110WS02006113    1.00   0.00  0.00  0.00  0.99  0.00  0.00  0.00  0.00  0.00
  WS02006109WS02006110    1.00   0.00  0.00  0.00  1.00  0.00  0.00  0.00  0.00  0.00
  WS02004411WS02004412    1.00   0.05  0.00  0.00  0.95  0.00  0.00  0.00  0.00  0.00
  WS02004401WS02004402    1.00   0.01  0.00  0.00  0.99  0.00  0.00  0.00  0.01  0.00
  WS02004413WS02003067    1.00   0.05  0.01  0.00  0.00  0.00  0.94  0.00  0.00  0.00
  WS02004412WS02004413    1.00   0.05  0.00  0.00  0.95  0.00  0.00  0.00  0.00  0.00
  WS02004410WS02004411    1.00   0.05  0.00  0.00  0.95  0.00  0.00  0.00  0.00  0.00
  WS02004409WS02004410    1.00   0.05  0.00  0.00  0.95  0.00  0.00  0.00  0.00  0.00
  WS02004407WS02004409    1.00   0.04  0.00  0.00  0.95  0.01  0.00  0.00  0.81  0.00
  WS02004406WS02004407    1.00   0.00  0.04  0.00  0.96  0.00  0.00  0.00  0.00  0.00
  WS02004405WS02004406    1.00   0.00  0.00  0.00  1.00  0.00  0.00  0.00  0.02  0.00
  WS02004404WS02004405    1.00   0.00  0.00  0.00  1.00  0.00  0.00  0.00  0.00  0.00
  WS02004403WS02004404    1.00   0.00  0.01  0.00  0.99  0.00  0.00  0.00  0.02  0.00
  WS02004402WS02004403    1.00   0.01  0.00  0.00  0.99  0.00  0.00  0.00  0.00  0.00
  WS02004139WS02001211    1.00   0.00  0.00  0.00  1.00  0.00  0.00  0.00  0.00  0.00
  WS02004138WS02004139    1.00   0.00  0.00  0.00  1.00  0.00  0.00  0.00  1.00  0.00
  WS02003067WS02003066    1.00   0.06  0.00  0.00  0.94  0.00  0.00  0.00  0.00  0.00
  WS02001213WS02003059    1.00   0.00  0.00  0.00  1.00  0.00  0.00  0.00  0.00  0.00
  WS02001212WS02001213    1.00   0.00  0.00  0.00  0.93  0.00  0.07  0.00  0.00  0.00
  WS02001211WS02001212    1.00   0.00  0.00  0.00  1.00  0.00  0.00  0.00  0.00  0.00
  WS02003072WS02003073    1.00   0.00  0.00  0.00  0.00  0.00  0.00  1.00  0.00  0.00
  WS02003069WS02003072    1.00   0.00  0.00  0.00  1.00  0.00  0.00  0.00  0.10  0.00
  WS02003060WS02003069    1.00   0.00  0.00  0.00  0.99  0.01  0.00  0.00  0.07  0.00
  WS02003059WS02003060    1.00   0.00  0.00  0.00  1.00  0.00  0.00  0.00  0.00  0.00
  HS02004901HS02004770    1.00   0.03  0.00  0.00  0.97  0.00  0.00  0.00  0.00  0.00
  HS02004876HS02004881    1.00   0.01  0.00  0.00  0.91  0.08  0.00  0.00  0.00  0.00
  HS02004870HS02004876    1.00   0.00  0.00  0.00  1.00  0.00  0.00  0.00  0.95  0.00
  HS02004842HS02004848    1.00   0.00  0.03  0.00  0.97  0.00  0.00  0.00  0.56  0.00
  HS02004837HS02004842    1.00   0.00  0.00  0.00  1.00  0.00  0.00  0.00  0.11  0.00
  HS02004830HS02004837    1.00   0.00  0.00  0.00  1.00  0.00  0.00  0.00  0.99  0.00
  HS02004824HS02004830    1.00   0.00  0.00  0.00  1.00  0.00  0.00  0.00  0.03  0.00
  HS02004817HS02004824    1.00   0.00  0.00  0.00  1.00  0.00  0.00  0.00  0.92  0.00
  HS02004770HS02004777    1.00   0.00  0.03  0.00  0.97  0.00  0.00  0.00  0.02  0.00
  HS02004799HS02004480    1.00   0.00  0.01  0.00  0.96  0.00  0.03  0.00  0.00  0.00
  HS02004792HS02004799    1.00   0.00  0.00  0.00  1.00  0.00  0.00  0.00  0.98  0.00
  HS02004788HS02004792    1.00   0.00  0.00  0.00  1.00  0.00  0.00  0.00  0.98  0.00
  HS02004785HS02004788    1.00   0.00  0.00  0.00  1.00  0.00  0.00  0.00  0.00  0.00
  HS02004777HS02004785    1.00   0.00  0.00  0.00  1.00  0.00  0.00  0.00  0.11  0.00
  HS02004480HS02004478    1.00   0.03  0.00  0.00  0.71  0.00  0.00  0.26  0.00  0.00
  HS02004479HS02004480    1.00   0.01  0.00  0.00  0.99  0.00  0.00  0.00  0.11  0.00
  HS02004862HS02004870    1.00   0.00  0.00  0.00  1.00  0.00  0.00  0.00  0.03  0.00
  HS02004848HS02004852    1.00   0.03  0.00  0.00  0.97  0.00  0.00  0.00  0.79  0.00
  HS02004856HS02004862    1.00   0.00  0.04  0.00  0.96  0.00  0.00  0.00  0.84  0.00
  HS02004852HS02004856    1.00   0.03  0.00  0.00  0.97  0.00  0.00  0.00  0.77  0.00
  HS02004802HS02004478    1.00   0.03  0.00  0.00  0.97  0.00  0.00  0.00  0.02  0.00
  HS02004478WS02006287    1.00   0.04  0.00  0.00  0.76  0.21  0.00  0.00  0.62  0.00
  HS02004817HS02004807    1.00   0.00  0.03  0.00  0.97  0.00  0.00  0.00  0.01  0.00
  HS02004807HS02004802    1.00   0.03  0.00  0.00  0.97  0.00  0.00  0.00  0.00  0.00
  YS02001759YS02001757    1.00   0.00  0.00  0.00  1.00  0.00  0.00  0.00  0.15  0.00
  YS02001762YS02001759    1.00   0.00  0.00  0.00  1.00  0.00  0.00  0.00  0.02  0.00
  YS02001765YS02001762    1.00   0.00  0.00  0.00  1.00  0.00  0.00  0.00  0.13  0.00
  YS02001770YS02001767    1.00   0.00  0.00  0.00  1.00  0.00  0.00  0.00  0.00  0.00
  YS02001774YS02001770    1.00   0.00  0.03  0.00  0.97  0.00  0.00  0.00  0.02  0.00
  YS02001779YS02001774    1.00   0.00  0.00  0.00  1.00  0.00  0.00  0.00  0.17  0.00
  YS02001649YS02001757    1.00   0.00  0.00  0.00  1.00  0.00  0.00  0.00  0.15  0.00
  YS02001767YS02001765    1.00   0.00  0.00  0.00  1.00  0.00  0.00  0.00  0.00  0.00
  YS02006561YS02001783    1.00   0.04  0.00  0.00  0.38  0.58  0.00  0.00  0.43  0.00
  YS02001783YS02001784    1.00   0.00  0.04  0.00  0.96  0.00  0.00  0.00  0.00  0.00
  YS02001784YS02001785    1.00   0.00  0.00  0.00  1.00  0.00  0.00  0.00  0.16  0.00
  YS02001788YS02001790    1.00   0.00  0.00  0.00  0.41  0.59  0.00  0.00  0.37  0.00
  YS02001790YS02001791    1.00   0.00  0.00  0.00  0.38  0.62  0.00  0.00  0.43  0.00
  YS02001791YS02001793    1.00   0.00  0.00  0.00  0.41  0.59  0.00  0.00  0.02  0.00
  YS02001910YS02001907    1.00   0.00  0.00  0.00  0.99  0.00  0.00  0.01  0.12  0.00
  YS02001786YS02001788    1.00   0.00  0.00  0.00  0.39  0.61  0.00  0.00  0.00  0.00
  YS02001915YS02001910    1.00   0.00  0.00  0.00  0.99  0.01  0.00  0.00  0.13  0.00
  YS02001918YS02001915    1.00   0.00  0.00  0.00  0.99  0.00  0.00  0.00  0.50  0.00
  YS02001923YS02001920    1.00   0.00  0.00  0.00  1.00  0.00  0.00  0.00  0.74  0.00
  YS02001926YS02001923    1.00   0.00  0.02  0.00  0.22  0.00  0.76  0.00  0.00  0.00
  YS02001929YS02001926    1.00   0.00  0.03  0.00  0.97  0.00  0.00  0.00  0.65  0.00
  YS02001920YS02001918    1.00   0.00  0.00  0.00  1.00  0.00  0.00  0.00  0.00  0.00
  YS02001629YS02163301    1.00   0.03  0.00  0.00  0.96  0.00  0.00  0.00  0.00  0.00
  YS02001619YS02001622    1.00   0.03  0.00  0.00  0.97  0.00  0.00  0.00  0.00  0.00
  YS02001622YS02001625    1.00   0.03  0.00  0.00  0.97  0.00  0.00  0.00  0.03  0.00
  YS02001625YS02001629    1.00   0.03  0.01  0.00  0.95  0.00  0.01  0.00  0.00  0.00
  YS02163301YS02001633    1.00   0.00  0.03  0.00  0.97  0.00  0.00  0.00  0.00  0.00
  YS02163601YS02164001    1.00   0.00  0.02  0.00  0.98  0.00  0.00  0.00  0.00  0.00
  YS02164001YS02001641    1.00   0.00  0.02  0.00  0.98  0.00  0.00  0.00  0.06  0.00
  YS02001641YS02001644    1.00   0.00  0.00  0.00  1.00  0.00  0.00  0.00  0.00  0.00
  YS02001647YS02001649    1.00   0.00  0.04  0.00  0.96  0.00  0.00  0.00  0.01  0.00
  YS02006553YS02006556    1.00   0.00  0.00  0.00  1.00  0.00  0.00  0.00  0.03  0.00
  YS02006556YS02006558    1.00   0.00  0.00  0.00  1.00  0.00  0.00  0.00  0.00  0.00
  YSB6556YSB1171          1.00   0.01  0.02  0.00  0.97  0.00  0.00  0.00  0.00  0.00
  YS02001907YS02006553    1.00   0.00  0.01  0.00  0.99  0.00  0.00  0.00  0.00  0.00
  YS02006558YS02006561    1.00   0.04  0.00  0.00  0.22  0.74  0.00  0.00  0.45  0.00
  YS02001633YS02163601    1.00   0.00  0.00  0.00  1.00  0.00  0.00  0.00  0.15  0.00
  YS02001644YS02001647    1.00   0.00  0.04  0.00  0.96  0.00  0.00  0.00  0.00  0.00
  YS02001745YS02001748    1.00   0.00  0.00  0.00  0.94  0.00  0.00  0.06  0.01  0.00
  YS02001748YS02001751    1.00   0.00  0.00  0.00  0.98  0.02  0.00  0.00  0.14  0.00
  YS02001751YS02001754    1.00   0.00  0.00  0.00  0.95  0.00  0.00  0.04  0.01  0.00
  YS02001754YS02001757    1.00   0.00  0.00  0.00  1.00  0.00  0.00  0.00  0.17  0.00
  YS02001882YS02001884    1.00   0.03  0.00  0.00  0.96  0.00  0.00  0.00  0.00  0.00
  YS02001884YS02001887    1.00   0.02  0.01  0.00  0.97  0.00  0.00  0.00  0.00  0.00
  YS02001890YS02001895    1.00   0.00  0.03  0.00  0.96  0.00  0.00  0.00  0.00  0.00
  YS02001895YS02001898    1.00   0.04  0.00  0.00  0.96  0.00  0.01  0.00  0.00  0.00
  YS02001898YS02001901    1.00   0.04  0.00  0.00  0.96  0.00  0.00  0.00  0.01  0.00
  YS02001901YS02001904    1.00   0.04  0.00  0.00  0.96  0.00  0.00  0.00  0.00  0.00
  YS02001904YS02001907    1.00   0.00  0.04  0.00  0.96  0.00  0.00  0.00  0.00  0.00
  YS02001887YS02001890    1.00   0.00  0.00  0.00  0.99  0.00  0.01  0.00  0.00  0.00
  YS02001652YS02001649    1.00   0.00  0.00  0.00  1.00  0.00  0.00  0.00  0.15  0.00
  YS02001655YS02001652    1.00   0.00  0.00  0.00  0.95  0.00  0.00  0.04  0.01  0.00
  YS02001658YS02001655    1.00   0.00  0.03  0.00  0.95  0.02  0.00  0.00  0.02  0.00
  YS02001661YS02001658    1.00   0.03  0.00  0.00  0.93  0.03  0.00  0.00  0.01  0.00
  YS02001664YS02001661    1.00   0.03  0.00  0.00  0.94  0.03  0.00  0.00  0.10  0.00
  YSB1154YSB6556          1.00   0.03  0.00  0.00  0.97  0.00  0.00  0.00  0.01  0.00
  YSB1174YSB1171          1.00   0.01  0.01  0.00  0.98  0.00  0.00  0.00  0.00  0.00
  YSB1171HS02004479       1.00   0.01  0.00  0.00  0.99  0.00  0.00  0.00  0.10  0.00
  HS02004881HS02006253    1.00   0.01  0.00  0.00  0.88  0.01  0.00  0.10  0.74  0.00
  YS02001793JiankangQianchi    1.00   0.00  0.00  0.00  0.67  0.33  0.00  0.00  0.33  0.00
  YS02001757CaochengTiaoxuchi    1.00   0.00  0.05  0.00  0.92  0.02  0.00  0.00  0.00  0.00
  WSF200WS02003060        1.00   0.00  0.01  0.00  0.99  0.00  0.00  0.00  0.24  0.00
  1                       1.00   0.00  0.00  0.00  0.00  1.00  0.00  0.00  0.61  0.00
  
  
  *************************
  Conduit Surcharge Summary
  *************************
  
  ----------------------------------------------------------------------------
                                                           Hours        Hours 
                         --------- Hours Full --------   Above Full   Capacity
  Conduit                Both Ends  Upstream  Dnstream   Normal Flow   Limited
  ----------------------------------------------------------------------------
  WS02006229WS02006228        5.02      5.08      5.02      5.60         5.02
  WS02006256WS02006235        6.27      6.27      6.80      4.72         0.01
  WS02006253WS02006251        2.99      2.99      3.04      0.01         0.01
  WS02006252WS02006251        2.19      2.19      3.20      2.29         0.01
  WS02006251WS02006249        3.01      3.01      3.08      1.76         1.65
  WS02006249WS02006248        3.03      3.03      3.08      5.01         0.01
  WS02006248WS02006247        3.07      3.07      3.25      0.01         0.01
  WS02006247WS02006245        3.24      3.30      3.24      5.35         2.98
  WS02006245WS02006243        3.30      3.30      3.53      0.60         0.67
  WS02006243WS02006242        3.64      3.64      4.54      0.01         0.01
  WS02006242WS02006240        4.42      4.42      4.69      2.31         0.01
  WS02006240WS02006239        4.46      4.47      4.60      1.33         1.12
  WS02006239WS02006238        4.77      4.79      4.90      1.40         1.21
  WS02006238WS02006235        4.88      4.88      4.97      0.01         0.02
  WS02006235WS02006234        4.59      4.59      4.84      6.12         0.02
  WS02006234WS02006232        4.71      4.71      5.01      0.87         0.86
  WS02006232WS02006231        2.75      2.75      5.01      0.99         0.01
[...]
  YS02001779YS02001774        6.13      6.13      6.19      0.01         0.01
  YS02001649YS02001757        6.19      6.19      6.23      0.01         0.01
  YS02001767YS02001765        6.18      6.18      6.18      0.01         0.01
  YS02006561YS02001783        1.69      1.69      1.93      0.01         0.01
  YS02001783YS02001784        1.91      1.93      1.91      2.13         1.89
  YS02001784YS02001785        1.85      1.91      1.85      2.90         1.85
  YS02001788YS02001790        1.80      1.80      2.48      0.01         0.01
  YS02001790YS02001791        2.48      2.48      2.57      1.82         1.79
  YS02001791YS02001793        2.57      2.57      2.92      0.01         0.01
  YS02001910YS02001907        1.93      1.93      2.40      0.01         0.01
  YS02001786YS02001788        1.80      1.85      1.80      2.57         1.80
  YS02001915YS02001910        1.80      1.80      1.93      0.01         0.01
  YS02001918YS02001915        1.65      1.65      1.80      0.01         0.01
  YS02001923YS02001920        1.49      1.49      1.67      0.01         0.01
  YS02001926YS02001923        0.01      0.01      0.01      0.01         0.01
  YS02001929YS02001926        0.01      0.01      0.01      0.01         0.01
  YS02001920YS02001918        1.65      1.65      1.67      0.01         0.01
  YS02001629YS02163301        6.16      6.16      6.17      0.01         0.01
  YS02001619YS02001622        6.09      6.09      6.10      0.01         0.03
  YS02001622YS02001625        6.10      6.10      6.15      0.01         0.01
  YS02001625YS02001629        6.08      6.08      6.15      0.01         0.01
  YS02163301YS02001633        6.17      6.17      6.18      0.01         0.01
  YS02163601YS02164001        6.17      6.17      6.20      0.01         0.01
  YS02164001YS02001641        6.17      6.17      6.18      0.01         0.02
  YS02001641YS02001644        6.18      6.18      6.18      2.38         2.60
  YS02001647YS02001649        6.15      6.15      6.19      0.01         0.01
  YS02006553YS02006556        2.11      2.11      2.46      0.01         0.01
  YS02006556YS02006558        2.22      2.22      2.52      0.01         0.01
  YSB6556YSB1171              0.01      0.01      0.30      0.01         0.01
  YS02001907YS02006553        2.94      2.94      3.16      0.01         0.01
  YS02006558YS02006561        1.78      2.08      1.78      2.78         1.78
  YS02001633YS02163601        6.17      6.17      6.20      0.01         0.01
  YS02001644YS02001647        6.15      6.15      6.18      0.01         0.01
  YS02001745YS02001748        0.01      0.01      6.04      0.01         0.01
  YS02001748YS02001751        6.05      6.05      6.08      0.01         0.01
  YS02001751YS02001754        6.08      6.08      6.14      0.01         0.01
  YS02001754YS02001757        6.15      6.15      6.23      0.01         0.01
  YS02001882YS02001884        1.80      1.80      1.82      0.01         0.01
  YS02001884YS02001887        1.85      1.85      1.88      0.01         0.01
  YS02001890YS02001895        1.78      1.78      1.94      0.01         0.01
  YS02001895YS02001898        1.77      1.77      1.78      0.01         0.01
  YS02001898YS02001901        1.79      1.79      1.85      0.01         0.01
  YS02001901YS02001904        1.83      1.83      1.85      0.01         0.01
  YS02001904YS02001907        1.83      1.83      2.50      0.01         0.01
  YS02001887YS02001890        1.89      1.89      1.92      0.52         0.01
  YS02001652YS02001649        6.15      6.15      6.19      0.01         0.01
  YS02001655YS02001652        6.10      6.10      6.15      0.01         0.01
  YS02001658YS02001655        6.05      6.05      6.10      0.01         0.01
  YS02001661YS02001658        0.08      0.08      6.05      0.01         0.01
  YS02001664YS02001661        0.01      0.01      1.84      0.01         0.01
  HS02004881HS02006253        0.01      0.01      1.81      0.01         0.01
  YS02001793JiankangQianchi        2.83      2.83      4.23      0.01         0.01
  YS02001757CaochengTiaoxuchi        5.75      5.75      6.23      0.01         0.01
  
  
  ***************
  Pumping Summary
  ***************
  
  ---------------------------------------------------------------------------------------------------------
                                                  Min       Avg       Max     Total     Power    % Time Off
                        Percent   Number of      Flow      Flow      Flow    Volume     Usage    Pump Curve
  Pump                 Utilized   Start-Ups       LPS       LPS       LPS  10^6 ltr     Kw-hr    Low   High
  ---------------------------------------------------------------------------------------------------------
  CC-Pump-1               72.34           1      0.00    187.65    200.00     3.780      3.95    0.0    0.0
  CC-Pump-2               38.29           5      0.00    113.37    200.00     1.560      2.23    0.0    0.0
  JK-Pump-1               65.96           4      0.00    245.21    300.00     4.297     56.97    0.0    0.0
  JK-Pump-2               61.71           4      0.00    465.16    683.00     7.762     96.12    0.0   97.8
  XR-Pump-1              100.00           1      0.00     94.13     95.00     2.622     21.75    0.0    0.0
  XR-Pump-2              100.00           1      0.00     94.13     95.00     2.622     21.75    0.0    0.0
  XR-Pump-3               95.74           3      0.00     93.55     95.00     2.451     17.97    0.0    0.0
  XR-Pump-4               95.74           3      0.00     93.55     95.00     2.451     17.97    0.0    0.0
  
  
  ***************************
  Link Pollutant Load Summary
  ***************************
  
  ------------------------------------------------------------------------------------------
                                 COD            SS            TN            TP         NH4-N
  Link                            kg            kg            kg            kg            kg
  ------------------------------------------------------------------------------------------
  WS02003066WSF200          1196.996      2302.437        28.269         2.337        14.510
  WS02006287WS02006284       438.095       854.561        12.586         1.181         6.763
  WS02006284WS02006280       438.597       855.369        12.634         1.187         6.793
  WS02006280WS02006229       438.605       855.428        12.632         1.187         6.792
  WS02006229WS02006228      1193.895      2295.973        27.735         2.260        14.165
  WS02006256WS02006235       235.669       445.138         4.942         0.371         2.460
  WS02006253WS02006251        82.976       167.008         1.752         0.128         0.858
  WS02006252WS02006251       535.429      1021.418        10.301         0.704         4.963
  WS02006251WS02006249       611.641      1175.540        11.951         0.828         5.777
  WS02006249WS02006248       532.614      1020.482        10.430         0.722         5.045
  WS02006248WS02006247       529.786      1014.497        10.379         0.719         5.021
  WS02006247WS02006245       530.026      1015.086        10.381         0.719         5.022
  WS02006245WS02006243       530.556      1016.343        10.389         0.719         5.025
  WS02006243WS02006242       531.250      1017.754        10.405         0.721         5.033
  WS02006242WS02006240       530.649      1016.510        10.397         0.720         5.030
  WS02006240WS02006239       530.262      1015.500        10.399         0.721         5.033
  WS02006239WS02006238       530.014      1014.591        10.412         0.723         5.043
  WS02006238WS02006235       529.385      1013.030        10.410         0.724         5.043
  WS02006235WS02006234       759.067      1447.503        15.188         1.080         7.416
  WS02006234WS02006232       758.366      1446.251        15.174         1.079         7.410
  WS02006232WS02006231       757.619      1444.878        15.160         1.078         7.403
  WS02006231WS02006230       757.256      1444.213        15.157         1.079         7.402
  WS02006230WS02006229       757.573      1444.821        15.177         1.081         7.414
  WS02006228WS02006109      1192.668      2293.779        27.700         2.257        14.146
  WS02006116WS02004401      1210.579      2327.281        28.597         2.363        14.678
  WS02006115WS02006116      1212.158      2330.151        28.641         2.367        14.702
  WS02006113WS02006111      1198.034      2301.899        28.419         2.350        14.604
  WS02006112WS02006115      1213.608      2332.788        28.687         2.371        14.727
  WS02006111WS02006112      1197.340      2300.533        28.402         2.349        14.595
  WS02006110WS02006113      1198.617      2302.880        28.439         2.352        14.615
  WS02006109WS02006110      1199.845      2305.026        28.482         2.356        14.638
  WS02004411WS02004412      1200.250      2308.341        28.380         2.348        14.572
  WS02004401WS02004402      1209.023      2324.459        28.548         2.358        14.652
  WS02004413WS02003067      1197.647      2303.647        28.283         2.338        14.517
  WS02004412WS02004413      1199.083      2306.215        28.346         2.345        14.554
  WS02004410WS02004411      1201.209      2310.086        28.406         2.350        14.586
  WS02004409WS02004410      1202.197      2311.883        28.436         2.353        14.602
  WS02004407WS02004409      1203.056      2313.440        28.457         2.354        14.613
  WS02004406WS02004407      1203.321      2313.900        28.460         2.354        14.614
  WS02004405WS02004406      1205.115      2317.070        28.536         2.362        14.657
  WS02004404WS02004405      1206.517      2319.689        28.547         2.362        14.660
  WS02004403WS02004404      1206.260      2319.456        28.465         2.351        14.607
  WS02004402WS02004403      1207.551      2321.798        28.506         2.355        14.629
  WS02004139WS02001211      1360.148      2305.214       102.017        12.306        62.462
  WS02004138WS02004139      1366.270      2315.542       102.472        12.360        62.740
  WS02003067WS02003066      1197.166      2302.753        28.274         2.337        14.513
  WS02001213WS02003059      1393.762      2357.850       105.529        12.749        64.670
  WS02001212WS02001213      1402.895      2373.093       106.252        12.837        65.114
  WS02001211WS02001212      1404.724      2376.092       106.407        12.856        65.210
  WS02003072WS02003073      2691.476      4820.100       143.829        16.345        85.464
  WS02003069WS02003072      2696.183      4827.852       144.219        16.393        85.705
  WS02003060WS02003069      2698.874      4832.533       144.375        16.411        85.799
  WS02003059WS02003060      1391.171      2353.370       105.364        12.730        64.570
  HS02004901HS02004770        19.398        38.440         0.369         0.028         0.174
  HS02004876HS02004881        64.841       131.154         1.382         0.100         0.674
  HS02004870HS02004876        49.301        99.617         1.094         0.080         0.537
  HS02004842HS02004848         9.278        18.136         0.191         0.013         0.089
  HS02004837HS02004842        13.925        25.525         0.662         0.072         0.384
  HS02004830HS02004837        81.308       145.732         4.858         0.568         2.931
  HS02004824HS02004830        82.102       147.037         4.931         0.577         2.976
  HS02004817HS02004824       118.565       221.807         5.667         0.624         3.333
  HS02004770HS02004777        73.683       147.824         1.507         0.104         0.700
  HS02004799HS02004480       235.083       460.641         5.679         0.484         2.882
  HS02004792HS02004799       214.143       417.334         5.330         0.464         2.722
  HS02004788HS02004792       116.316       227.343         3.333         0.303         1.755
  HS02004785HS02004788        75.101       150.092         1.654         0.123         0.793
  HS02004777HS02004785        74.431       149.017         1.592         0.115         0.755
  HS02004480HS02004478       294.425       579.931         6.704         0.559         3.370
  HS02004479HS02004480        62.981       125.165         1.335         0.113         0.681
  HS02004862HS02004870        37.531        74.848         0.862         0.066         0.425
  HS02004848HS02004852        15.822        31.381         0.320         0.022         0.149
  HS02004856HS02004862        25.851        52.198         0.514         0.035         0.242
  HS02004852HS02004856        15.835        31.404         0.320         0.022         0.149
  HS02004802HS02004478       144.595       276.111         5.948         0.629         3.432
  HS02004478WS02006287       438.241       854.770        12.603         1.183         6.773
  HS02004817HS02004807       117.201       219.655         5.526         0.607         3.245
  HS02004807HS02004802       144.757       276.357         5.979         0.633         3.453
  YS02001759YS02001757       467.059       883.470         9.126         0.639         4.449
  YS02001762YS02001759       214.663       403.072         4.428         0.312         2.181
  YS02001765YS02001762       215.667       405.987         4.463         0.315         2.200
  YS02001770YS02001767       218.748       414.964         4.354         0.295         2.118
  YS02001774YS02001770       422.784       830.640         8.149         0.545         3.942
  YS02001779YS02001774       421.775       828.687         8.211         0.556         3.987
  YS02001649YS02001757       398.732       741.748         7.896         0.548         3.795
  YS02001767YS02001765       217.473       410.489         4.508         0.319         2.224
  YS02006561YS02001783      1263.657      2385.623        26.088         1.928        12.915
  YS02001783YS02001784      1263.563      2385.480        26.084         1.928        12.913
  YS02001784YS02001785      1270.919      2397.270        26.797         2.017        13.359
  YS02001788YS02001790      1271.498      2398.196        26.869         2.026        13.405
  YS02001790YS02001791      1272.510      2399.818        26.968         2.039        13.467
  YS02001791YS02001793      1272.482      2399.763        26.965         2.038        13.465
  YS02001910YS02001907       566.153      1068.894        12.832         0.951         6.486
  YS02001786YS02001788      1271.105      2397.567        26.825         2.021        13.377
  YS02001915YS02001910       565.846      1068.294        12.784         0.944         6.455
  YS02001918YS02001915       279.448       506.699         6.966         0.602         3.668
  YS02001923YS02001920       254.292       463.744         4.943         0.357         2.419
  YS02001926YS02001923       251.217       458.213         4.824         0.345         2.351
  YS02001929YS02001926       248.418       453.336         4.694         0.330         2.275
  YS02001920YS02001918       275.377       498.155         6.876         0.596         3.623
  YS02001629YS02163301        89.580       159.131         1.892         0.124         0.887
  YS02001619YS02001622       259.389       485.248         5.243         0.348         2.461
  YS02001622YS02001625       258.412       483.711         5.219         0.346         2.450
  YS02001625YS02001629        86.646       153.304         1.847         0.120         0.864
  YS02163301YS02001633        94.419       168.625         1.969         0.131         0.926
  YS02163601YS02164001       528.986       976.431        10.164         0.735         4.885
  YS02164001YS02001641       528.878       976.236        10.151         0.733         4.878
  YS02001641YS02001644       529.908       977.961        10.164         0.734         4.883
  YS02001647YS02001649       552.735      1035.866        10.911         0.764         5.205
  YS02006553YS02006556       782.654      1458.586        16.656         1.263         8.346
  YS02006556YS02006558       782.827      1458.903        16.622         1.258         8.323
  YSB6556YSB1171              36.520        72.732         0.718         0.058         0.359
  YS02001907YS02006553       782.610      1458.517        16.684         1.267         8.365
  YS02006558YS02006561      1263.656      2385.608        26.088         1.928        12.915
  YS02001633YS02163601       529.592       977.389        10.141         0.730         4.868
  YS02001644YS02001647       560.413      1050.518        11.037         0.773         5.265
  YS02001745YS02001748       354.066       679.955         6.989         0.437         3.358
  YS02001748YS02001751       353.370       678.771         6.996         0.440         3.365
  YS02001751YS02001754       352.458       677.273         6.981         0.440         3.359
  YS02001754YS02001757       353.294       678.529         7.148         0.462         3.468
  YS02001882YS02001884         4.763         8.489         0.090         0.007         0.045
  YS02001884YS02001887         7.948        14.349         0.150         0.011         0.074
  YS02001890YS02001895       614.717      1175.297        11.360         0.858         5.543
  YS02001895YS02001898       614.583      1175.147        11.354         0.858         5.539
  YS02001898YS02001901       614.443      1174.863        11.351         0.857         5.538
  YS02001901YS02001904       614.245      1174.601        11.358         0.859         5.543
  YS02001904YS02001907       614.634      1175.183        11.418         0.866         5.581
  YS02001887YS02001890       669.233      1284.329        12.355         0.936         6.032
  YS02001652YS02001649       313.416       594.978         6.223         0.450         2.924
  YS02001655YS02001652       313.961       595.880         6.238         0.451         2.932
  YS02001658YS02001655       313.538       595.229         6.153         0.440         2.876
  YS02001661YS02001658       314.201       596.332         6.169         0.441         2.883
  YS02001664YS02001661       326.019       615.024         6.452         0.460         3.013
  YSB1154YSB6556              36.099        72.066         0.671         0.053         0.330
  YSB1174YSB1171              24.947        50.013         0.489         0.039         0.242
  YSB1171HS02004479           62.902       125.018         1.341         0.114         0.684
  HS02004881HS02006253        73.313       148.855         1.527         0.109         0.742
  YS02001793JiankangQianchi      1273.103      2400.773        26.993         2.041        13.481
  YS02001757CaochengTiaoxuchi       802.814      1510.008        15.810         1.082         7.638
  WSF200WS02003060          1196.777      2302.016        28.271         2.338        14.512
  1                         2696.747      4827.617       144.577        16.443        85.942
  CC-Pump-1                  376.686       718.124         7.257         0.496         3.497
  CC-Pump-2                  158.499       302.770         3.040         0.208         1.464
  JK-Pump-1                  354.675       675.529         7.290         0.543         3.613
  JK-Pump-2                  734.485      1408.236        14.798         1.088         7.294
  XR-Pump-1                  360.961       609.978        27.460         3.320        16.835
  XR-Pump-2                  360.961       609.978        27.460         3.320        16.835
  XR-Pump-3                  324.090       550.980        23.930         2.879        14.630
  XR-Pump-4                  324.090       550.980        23.930         2.879        14.630
  

  Analysis begun on:  Tue Jul 13 22:36:27 2021
  Analysis ended on:  Tue Jul 13 22:36:30 2021
  Total elapsed time: 00:00:03