
  EPA STORM WATER MANAGEMENT MODEL - VERSION 5.1 (Build 5.3.0.dev0)
  --------------------------------------------------------------

  WARNING 04: minimum elevation drop used for Conduit WS02004404WS02004405
  WARNING 03: negative offset ignored for Link YS02001904YS02001907
  
  *********************************************************
  NOTE: The summary statistics displayed in this report are
  based on results found at every computational time step,  
  not just on results from each reporting time step.
  *********************************************************
  
  ****************
  Analysis Options
  ****************
  Flow Units ............... LPS
  Process Models:
    Rainfall/Runoff ........ YES
    RDII ................... NO
    Snowmelt ............... NO
    Groundwater ............ NO
    Flow Routing ........... YES
    Ponding Allowed ........ NO
    Water Quality .......... YES
  Infiltration Method ...... HORTON
  Flow Routing Method ...... DYNWAVE
  Surcharge Method ......... EXTRAN
  Starting Date ............ 08/28/2015 08:00:00
  Ending Date .............. 08/28/2015 15:50:00
  Antecedent Dry Days ...... 8.0
  Report Time Step ......... 00:01:00
  Wet Time Step ............ 00:01:00
  Dry Time Step ............ 00:01:00
  Routing Time Step ........ 5.00 sec
  Variable Time Step ....... YES
  Maximum Trials ........... 8
  Number of Threads ........ 4
  Head Tolerance ........... 0.001500 m
  
  
  **************************        Volume         Depth
  Runoff Quantity Continuity     hectare-m            mm
  **************************     ---------       -------
  Total Precipitation ......         7.641        16.729
  Evaporation Loss .........         0.000         0.000
  Infiltration Loss ........         1.184         2.592
  Surface Runoff ...........         5.481        12.000
  Final Storage ............         0.977         2.139
  Continuity Error (%) .....        -0.016
  
  
  **************************           COD            SS            TN            TP         NH4-N
  Runoff Quality Continuity             kg            kg            kg            kg            kg
  **************************    ----------    ----------    ----------    ----------    ----------
  Initial Buildup ..........     41378.656     70582.865      1804.177       168.684      1032.807
  Surface Buildup ..........        30.344        63.217         2.449         0.220         1.402
  Wet Deposition ...........         0.000         0.000         0.000         0.000         0.000
  Sweeping Removal .........         0.000         0.000         0.000         0.000         0.000
  Infiltration Loss ........       127.934       247.015         2.452         0.174         1.174
  BMP Removal ..............         0.000         0.000         0.000         0.000         0.000
  Surface Runoff ...........      5553.100     10632.121       107.101         7.411        51.076
  Remaining Buildup ........     35725.917     59762.998      1697.031       161.316       981.940
  Continuity Error (%) .....         0.005         0.006         0.002         0.002         0.002
  
  
  **************************        Volume        Volume
  Flow Routing Continuity        hectare-m      10^6 ltr
  **************************     ---------     ---------
  Dry Weather Inflow .......         0.616         6.165
  Wet Weather Inflow .......         5.479        54.791
  Groundwater Inflow .......         0.000         0.000
  RDII Inflow ..............         0.000         0.000
  External Inflow ..........         0.102         1.024
  External Outflow .........         2.235        22.354
  Flooding Loss ............         3.501        35.009
  Evaporation Loss .........         0.000         0.000
  Exfiltration Loss ........         0.000         0.000
  Initial Stored Volume ....         0.076         0.761
  Final Stored Volume ......         0.649         6.490
  Continuity Error (%) .....        -1.774
  
  
  **************************           COD            SS            TN            TP         NH4-N
  Quality Routing Continuity            kg            kg            kg            kg            kg
  **************************    ----------    ----------    ----------    ----------    ----------
  Dry Weather Inflow .......      1541.201      2465.922       147.955        18.494        92.472
  Wet Weather Inflow .......      5551.981     10630.141       107.077         7.409        51.065
  Groundwater Inflow .......         0.000         0.000         0.000         0.000         0.000
  RDII Inflow ..............         0.000         0.000         0.000         0.000         0.000
  External Inflow ..........       183.418       293.469        17.608         2.201        11.005
  External Outflow .........      2713.615      4859.483       144.878        16.460        86.079
  Flooding Loss ............      3879.733      7350.073        99.400         8.703        52.242
  Exfiltration Loss ........         0.000         0.000         0.000         0.000         0.000
  Mass Reacted .............         0.000         0.000         0.000         0.000         0.000
  Initial Stored Mass ......         0.000         0.000         0.000         0.000         0.000
  Final Stored Mass ........       563.406       980.836        24.715         2.619        14.274
  Continuity Error (%) .....         1.647         1.487         1.338         1.145         1.260
  
  
  *************************
  Highest Continuity Errors
  *************************
  Node HS02004842 (10.96%)
  Node YS02001884 (9.49%)
  Node JK-storage (-9.12%)
  Node HS02004817 (2.13%)
  Node YSB1171 (1.97%)
  
  
  ***************************
  Time-Step Critical Elements
  ***************************
  Link WS02006252WS02006251 (70.29%)
  Link WS02006280WS02006229 (11.14%)
  Link WS02006238WS02006235 (3.60%)
  Link YS02001793JiankangQianchi (3.37%)
  Link WS02004404WS02004405 (3.27%)
  
  
  ********************************
  Highest Flow Instability Indexes
  ********************************
  Link WS02006113WS02006111 (33)
  Link YS02163601YS02164001 (32)
  Link YS02163301YS02001633 (32)
  Link YS02001629YS02163301 (31)
  Link YS02001619YS02001622 (30)
  
  
  *************************
  Routing Time Step Summary
  *************************
  Minimum Time Step           :     0.50 sec
  Average Time Step           :     1.06 sec
  Maximum Time Step           :     5.00 sec
  Percent in Steady State     :    -0.00
  Average Iterations per Step :     3.90
  Percent Not Converging      :    14.86
  
  
  ***************************
  Subcatchment Runoff Summary
  ***************************
  
  ------------------------------------------------------------------------------------------------------------------------------
                            Total      Total      Total      Total     Imperv       Perv      Total       Total     Peak  Runoff
                           Precip      Runon       Evap      Infil     Runoff     Runoff     Runoff      Runoff   Runoff   Coeff
  Subcatchment                 mm         mm         mm         mm         mm         mm         mm    10^6 ltr      LPS
  ------------------------------------------------------------------------------------------------------------------------------
  sub0                      16.73       0.00       0.00       0.71      15.51       0.47      15.98        0.01     3.87   0.955
  sub1                      16.73       0.00       0.00       1.18      14.80       0.66      15.46        0.10    26.74   0.924
  sub2                      16.73       0.00       0.00       4.79      10.46       1.40      11.85        0.11    25.81   0.708
  sub3                      16.73       0.00       0.00       5.01      10.42       1.18      11.60        0.26    56.97   0.693
  sub4                      16.73       0.00       0.00       1.28      14.64       0.56      15.20        0.32    66.74   0.909
  sub5                      16.73       0.00       0.00       0.73      15.46       0.44      15.91        0.18    46.91   0.951
  sub7                      16.73       0.00       0.00       0.93      15.16       0.58      15.74        0.05    14.85   0.941
  sub8                      16.73       0.00       0.00       0.94      15.15       0.57      15.72        0.10    27.42   0.940
  sub9                      16.73       0.00       0.00       0.94      15.15       0.57      15.72        0.08    20.52   0.940
  sub10                     16.73       0.00       0.00       0.83      15.30       0.50      15.81        0.17    46.04   0.945
  sub11                     16.73       0.00       0.00       0.83      15.32       0.51      15.83        0.18    50.62   0.947
  sub12                     16.73       0.00       0.00       1.34      14.51       0.83      15.34        0.13    39.22   0.917
  sub14                     16.73       0.00       0.00       0.94      15.15       0.57      15.72        0.15    40.40   0.939
  sub15                     16.73       0.00       0.00       3.54      11.65       1.48      13.13        0.23    57.86   0.785
  sub16                     16.73       0.00       0.00       3.72      11.17       1.80      12.97        0.14    37.34   0.776
  sub17                     16.73       0.00       0.00       3.62      11.33       1.73      13.07        0.11    30.57   0.781
  sub22                     16.73       0.00       0.00       5.27       9.49       1.92      11.42        0.72   183.11   0.683
  sub23                     16.73       0.00       0.00       4.37      10.50       1.82      12.32        0.59   153.57   0.736
  sub60                     16.73       0.00       0.00       1.74      12.78       0.27      13.05        3.96   446.24   0.780
  sub61                     16.73       0.00       0.00       2.46      12.72       0.38      13.11        4.04   542.53   0.784
  sub62                     16.73       0.00       0.00       1.06      13.91       0.27      14.19        4.36   558.01   0.848
  sub63                     16.73       0.00       0.00       4.39      11.06       0.46      11.52        3.49   496.40   0.689
  sub64                     16.73       0.00       0.00       2.23      12.28       0.28      12.56        3.82   424.95   0.751
  sub65                     16.73       0.00       0.00       1.91      12.51       0.27      12.77        3.93   431.32   0.764
  sub66                     16.73       0.00       0.00       4.54      10.46       0.31      10.78        3.31   388.44   0.644
  sub67                     16.73       0.00       0.00       1.01      14.45       0.32      14.78        4.56   675.76   0.883
  sub68                     16.73       0.00       0.00       1.95      13.33       0.39      13.71        4.22   589.75   0.820
  sub69                     16.73       0.00       0.00       2.00      13.62       0.51      14.12        3.30   542.07   0.844
  sub70                     16.73      14.42       0.00       8.47      19.01       2.12      21.13        4.84   534.50   0.678
  sub71                     16.73       0.00       0.00       1.08      13.65       0.25      13.90        3.28   394.68   0.831
  sub72                     16.73       0.00       0.00       1.02      11.50       0.15      11.65        2.37   206.66   0.697
  1                         16.73      20.58       0.00       1.37      22.38       7.20      29.58        6.95   612.18   0.793
  2                         16.73       0.00       0.00       3.02       4.04       3.18       7.22        2.89   331.58   0.431
  
  
  ****************************
  Subcatchment Washoff Summary
  ****************************
  
  ------------------------------------------------------------------------------------------
                                 COD            SS            TN            TP         NH4-N
  Subcatchment                    kg            kg            kg            kg            kg
  ------------------------------------------------------------------------------------------
  sub0                         3.641         7.161         0.064         0.005         0.031
  sub1                        15.670        31.767         0.296         0.021         0.143
  sub2                        10.304        20.454         0.214         0.015         0.099
  sub3                        25.293        49.815         0.517         0.036         0.240
  sub4                        36.168        74.260         0.714         0.044         0.344
  sub5                        35.763        71.366         0.649         0.050         0.316
  sub7                         7.894        16.212         0.150         0.010         0.073
  sub8                        11.755        24.726         0.234         0.014         0.113
  sub9                        10.113        20.966         0.196         0.013         0.095
  sub10                       29.347        59.341         0.545         0.040         0.265
  sub11                       28.395        58.052         0.536         0.037         0.260
  sub12                       24.463        49.072         0.450         0.034         0.218
  sub14                       21.697        44.543         0.414         0.028         0.200
  sub15                       29.696        58.821         0.572         0.042         0.270
  sub16                       19.246        38.050         0.367         0.028         0.174
  sub17                       17.687        34.653         0.330         0.026         0.156
  sub22                       95.915       186.896         1.820         0.139         0.857
  sub23                       54.382       109.539         1.141         0.076         0.527
  sub60                      353.947       679.509         6.988         0.437         3.357
  sub61                      439.695       840.113         8.188         0.570         3.952
  sub62                      449.790       873.119         8.744         0.564         4.209
  sub63                      328.186       618.356         6.505         0.463         3.037
  sub64                      450.924       835.563         8.299         0.611         3.976
  sub65                      460.537       856.688         8.527         0.617         4.090
  sub66                      259.427       485.147         5.248         0.348         2.463
  sub67                      667.181      1281.068        12.075         0.900         5.853
  sub68                      479.473       924.467         9.153         0.628         4.389
  sub69                      429.286       835.450         8.068         0.576         3.873
  sub70                      758.301      1478.311        15.194         1.074         7.173
  sub71                      296.268       580.620         6.027         0.356         2.890
  sub72                      247.759       452.374         4.612         0.320         2.223
  1                          576.917      1130.968        11.723         0.829         5.484
  2                           65.566       118.435         1.802         0.109         0.773
  ------------------------------------------------------------------------------------------
  System                    6740.687     12945.882       130.363         9.060        62.122
  
  
  ******************
  Node Depth Summary
  ******************
  
  ---------------------------------------------------------------------------------
                                 Average  Maximum  Maximum  Time of Max    Reported
                                   Depth    Depth      HGL   Occurrence   Max Depth
  Node                 Type       Meters   Meters   Meters  days hr:min      Meters
  ---------------------------------------------------------------------------------
  WS02001211           JUNCTION     0.78     0.85     5.69     0  02:04        0.85
  WS02001212           JUNCTION     0.50     0.58     5.64     0  02:04        0.58
  WS02001213           JUNCTION     0.74     0.86     5.62     0  02:03        0.86
  WS02003069           JUNCTION     0.55     0.72     5.31     0  02:03        0.72
  WS02003072           JUNCTION     0.61     0.76     5.14     0  02:04        0.76
  WS02003073           JUNCTION     0.37     0.48     4.55     0  02:04        0.48
  WS02003060           JUNCTION     0.49     0.64     5.57     0  02:03        0.64
  WS02003066           JUNCTION     0.27     0.39     5.94     0  01:58        0.39
  WS02003059           JUNCTION     0.79     0.91     5.60     0  02:03        0.91
  WS02003067           JUNCTION     0.64     0.83     6.15     0  01:57        0.83
  WS02004401           JUNCTION     0.79     1.31     7.31     0  01:55        1.25
  WS02004402           JUNCTION     0.82     1.30     7.26     0  01:55        1.23
  WS02004403           JUNCTION     0.83     1.27     7.20     0  01:55        1.20
  WS02004404           JUNCTION     0.90     1.31     7.16     0  01:55        1.24
  WS02004406           JUNCTION     0.90     1.20     7.03     0  01:55        1.17
  WS02004409           JUNCTION     0.60     0.98     6.75     0  01:57        0.98
  WS02004410           JUNCTION     0.62     0.96     6.68     0  01:57        0.96
  WS02004411           JUNCTION     0.63     0.94     6.62     0  01:58        0.94
  WS02004412           JUNCTION     0.63     0.91     6.55     0  01:57        0.91
  WS02004413           JUNCTION     0.78     1.03     6.50     0  01:57        1.03
  WS02004405           JUNCTION     0.90     1.28     7.13     0  01:55        1.22
  WS02006109           JUNCTION     0.90     1.76     8.37     0  01:55        1.75
  WS02006110           JUNCTION     0.86     1.54     8.13     0  01:55        1.52
  WS02006111           JUNCTION     0.29     1.04     7.74     0  01:55        0.94
  WS02006112           JUNCTION     0.98     1.65     7.54     0  01:55        1.60
  WS02006113           JUNCTION     0.42     1.04     7.93     0  01:55        0.99
  WS02006115           JUNCTION     0.69     1.31     7.45     0  01:55        1.25
  WS02006116           JUNCTION     0.77     1.35     7.39     0  01:55        1.28
  WS02006230           JUNCTION     0.95     1.98     8.72     0  01:56        1.98
  WS02006231           JUNCTION     0.68     1.61     8.73     0  01:56        1.61
  WS02006232           JUNCTION     0.84     1.70     8.74     0  01:56        1.70
  WS02006234           JUNCTION     0.79     1.59     8.75     0  01:56        1.59
  WS02006235           JUNCTION     0.84     1.60     8.76     0  01:56        1.59
  WS02006238           JUNCTION     0.87     1.61     8.76     0  01:56        1.60
  WS02006240           JUNCTION     0.78     1.44     8.74     0  01:56        1.44
  WS02006242           JUNCTION     0.84     1.46     8.73     0  01:56        1.45
  WS02006243           JUNCTION     0.73     1.30     8.72     0  01:56        1.29
  WS02006245           JUNCTION     0.70     1.22     8.71     0  01:56        1.22
  WS02006247           JUNCTION     0.71     1.20     8.70     0  01:53        1.19
  WS02006248           JUNCTION     0.65     1.10     8.69     0  01:53        1.10
  WS02006249           JUNCTION     0.67     1.09     8.69     0  01:53        1.09
  WS02006239           JUNCTION     0.83     1.54     8.75     0  01:56        1.53
  WS02006251           JUNCTION     0.64     1.34     9.01     0  01:54        1.17
  WS02006252           JUNCTION     0.40     0.82     9.06     0  05:18        0.72
  WS02006253           JUNCTION     0.67     1.52     9.17     0  01:54        1.20
  WS02006256           JUNCTION     1.80     2.35     9.28     0  00:00        2.35
  WS02004138           JUNCTION     0.19     0.20     7.45     0  00:00        0.19
  WS02004139           JUNCTION     0.73     0.79     5.70     0  02:05        0.79
  WS02004407           JUNCTION     0.27     0.40     6.72     0  01:56        0.40
  WS02006228           JUNCTION     0.93     1.94     8.59     0  01:55        1.93
  WS02006229           JUNCTION     0.92     2.02     8.71     0  01:56        2.01
  WS02006280           JUNCTION     0.07     0.34     8.61     0  01:55        0.32
  WS02006284           JUNCTION     0.37     0.66     9.06     0  01:54        0.66
  WS02006287           JUNCTION     0.10     0.40     9.36     0  01:54        0.40
  WSF200               JUNCTION     0.27     0.44     5.67     0  01:58        0.44
  HS02004901           JUNCTION     0.13     0.38    10.21     0  01:53        0.38
  HS02004881           JUNCTION     0.01     0.06     9.08     0  01:54        0.05
  HS02004876           JUNCTION     0.04     0.17     9.20     0  01:54        0.17
  HS02004870           JUNCTION     0.02     0.10     9.38     0  01:54        0.10
  HS02004862           JUNCTION     0.02     0.11     9.50     0  01:55        0.11
  HS02004856           JUNCTION     0.08     0.15     9.58     0  01:54        0.15
  HS02004852           JUNCTION     0.01     0.08     9.59     0  01:55        0.08
  HS02004848           JUNCTION     0.01     0.07     9.67     0  01:54        0.07
  HS02004842           JUNCTION     0.34     0.40     9.67     0  01:54        0.40
  HS02004837           JUNCTION     0.03     0.09     9.67     0  01:54        0.09
  HS02004830           JUNCTION     0.04     0.11     9.58     0  01:55        0.11
  HS02004824           JUNCTION     0.03     0.15     9.55     0  01:54        0.15
  HS02004817           JUNCTION     0.45     0.71     9.56     0  01:54        0.71
  HS02004807           JUNCTION     0.13     0.38     9.55     0  01:55        0.38
  HS02004802           JUNCTION     0.17     0.41     9.54     0  01:55        0.41
  HS02004799           JUNCTION     0.13     0.48     9.69     0  01:53        0.48
  HS02004792           JUNCTION     0.04     0.22     9.75     0  01:53        0.22
  HS02004788           JUNCTION     0.03     0.16    10.06     0  01:54        0.16
  HS02004785           JUNCTION     0.05     0.25    10.15     0  01:53        0.25
  HS02004777           JUNCTION     0.15     0.40    10.20     0  01:53        0.40
  HS02004770           JUNCTION     0.12     0.37    10.21     0  01:53        0.37
  HS02004480           JUNCTION     0.09     0.39     9.64     0  01:53        0.39
  HS02004479           JUNCTION     0.12     0.43     9.64     0  01:53        0.43
  HS02004478           JUNCTION     0.07     0.29     9.52     0  01:54        0.29
  YS02001745           JUNCTION     0.79     0.95     8.46     0  02:41        0.95
  YS02001748           JUNCTION     1.20     1.38     8.46     0  02:41        1.38
  YS02001751           JUNCTION     1.39     1.57     8.45     0  02:41        1.57
  YS02001754           JUNCTION     1.65     1.83     8.44     0  02:41        1.83
  YS02001762           JUNCTION     1.85     2.03     8.43     0  02:12        2.03
  YS02001765           JUNCTION     1.80     1.98     8.43     0  02:41        1.98
  YS02001767           JUNCTION     1.76     1.94     8.43     0  02:12        1.94
  YS02001770           JUNCTION     1.76     1.93     8.42     0  02:08        1.92
  YS02001774           JUNCTION     1.83     1.98     8.40     0  02:24        1.98
  YS02001779           JUNCTION     1.57     1.68     8.37     0  01:47        1.68
  YS02001882           JUNCTION     0.64     1.67     8.39     0  01:50        1.63
  YS02001884           JUNCTION     0.73     1.77     8.38     0  01:50        1.73
  YS02001759           JUNCTION     1.88     2.07     8.43     0  02:41        2.07
  YS02001887           JUNCTION     0.81     1.82     8.36     0  01:50        1.81
  YS02001890           JUNCTION     0.84     1.81     8.32     0  01:50        1.81
  YS02001898           JUNCTION     0.61     1.57     8.30     0  01:51        1.56
  YS02001901           JUNCTION     0.73     1.68     8.29     0  01:51        1.67
  YS02001904           JUNCTION     0.70     1.64     8.27     0  01:51        1.63
  YS02001907           JUNCTION     1.03     1.96     8.25     0  01:51        1.96
  YS02001910           JUNCTION     0.82     1.94     8.44     0  01:51        1.79
  YS02001915           JUNCTION     0.62     1.84     8.56     0  01:51        1.62
  YS02001918           JUNCTION     0.37     1.70     8.77     0  01:51        1.35
  YS02001619           JUNCTION     1.35     1.57     8.50     0  01:45        1.48
  YS02001629           JUNCTION     1.71     1.85     8.40     0  01:52        1.84
  YS02001641           JUNCTION     1.81     1.94     8.37     0  02:12        1.93
  YS02001644           JUNCTION     1.81     1.92     8.35     0  01:48        1.92
  YS02001652           JUNCTION     1.66     2.06     8.65     0  03:55        2.00
  YS02001655           JUNCTION     1.42     2.02     8.87     0  04:05        1.94
  YS02001920           JUNCTION     0.47     1.89     8.90     0  01:51        1.45
  YS02001923           JUNCTION     0.30     1.71     8.97     0  01:51        1.24
  YS02001926           JUNCTION     0.35     1.90     9.35     0  01:51        1.13
  YS02001929           JUNCTION     0.21     0.97     8.66     0  01:52        0.97
  YS02001658           JUNCTION     1.14     1.96     9.10     0  04:05        1.85
  YS02001661           JUNCTION     0.90     1.93     9.33     0  04:05        1.80
  YS02001664           JUNCTION     0.41     0.57     8.49     0  04:03        0.56
  YS02001622           JUNCTION     1.37     1.57     8.47     0  01:45        1.50
  YS02001633           JUNCTION     1.80     1.95     8.40     0  02:14        1.94
  YS02001649           JUNCTION     1.86     2.05     8.44     0  03:52        2.04
  YS02001757           JUNCTION     1.98     2.17     8.43     0  02:41        2.17
  YS02001895           JUNCTION     0.60     1.57     8.31     0  01:51        1.56
  YS02001625           JUNCTION     1.66     1.78     8.38     0  01:45        1.78
  YS02163301           JUNCTION     1.74     1.88     8.40     0  01:50        1.88
  YS02163601           JUNCTION     1.85     1.99     8.39     0  01:50        1.98
  YS02164001           JUNCTION     1.79     1.92     8.38     0  02:12        1.91
  YS02001647           JUNCTION     1.64     1.80     8.41     0  03:53        1.79
  YSB1154              JUNCTION     0.27     0.58     9.64     0  01:53        0.58
  YSB6556              JUNCTION     0.16     0.47     9.64     0  01:53        0.47
  YSB1174              JUNCTION     0.22     0.53     9.64     0  01:53        0.53
  YSB1171              JUNCTION     0.42     0.74     9.64     0  01:53        0.74
  YS02006553           JUNCTION     1.03     1.97     8.25     0  02:07        1.97
  YS02006561           JUNCTION     0.37     1.10     7.76     0  01:56        1.09
  YS02006556           JUNCTION     1.00     1.94     8.25     0  02:15        1.93
  YS02006558           JUNCTION     1.04     1.98     8.25     0  02:14        1.97
  YS02001783           JUNCTION     0.60     1.63     7.77     0  01:44        1.47
  YS02001784           JUNCTION     0.61     1.70     7.77     0  01:44        1.42
  YS02001786           JUNCTION     0.54     1.52     7.55     0  01:44        1.26
  YS02001788           JUNCTION     0.47     1.45     7.43     0  01:44        1.12
  YS02001790           JUNCTION     0.59     1.96     7.60     0  01:44        1.47
  YS02001791           JUNCTION     0.55     2.58     8.05     0  04:35        1.37
  YS02001793           JUNCTION     0.75     3.58     8.41     0  04:33        1.83
  WSC                  OUTFALL      0.37     0.48     1.15     0  02:05        0.48
  JK-storage           STORAGE      2.99     5.80     6.60     0  01:44        5.80
  CC-storage           STORAGE      1.23     1.43     8.43     0  02:41        1.43
  XR-storage           STORAGE      7.19     7.72     5.72     0  02:07        7.72
  
  
  *******************
  Node Inflow Summary
  *******************
  
  -------------------------------------------------------------------------------------------------
                                  Maximum  Maximum                  Lateral       Total        Flow
                                  Lateral    Total  Time of Max      Inflow      Inflow     Balance
                                   Inflow   Inflow   Occurrence      Volume      Volume       Error
  Node                 Type           LPS      LPS  days hr:min    10^6 ltr    10^6 ltr     Percent
  -------------------------------------------------------------------------------------------------
  WS02001211           JUNCTION      7.35   389.56     0  05:58       0.207        10.3       0.389
  WS02001212           JUNCTION      0.00   391.67     0  05:58           0        10.3       0.231
  WS02001213           JUNCTION      0.00   393.62     0  05:57           0        10.2       0.273
  WS02003069           JUNCTION      0.32  1339.00     0  02:03     0.00902        22.4       0.140
  WS02003072           JUNCTION      0.00  1338.97     0  02:04           0        22.4       0.172
  WS02003073           JUNCTION      1.82  1341.06     0  02:04      0.0514        22.4       0.198
  WS02003060           JUNCTION     16.53  1338.37     0  02:02       0.466        22.4       0.131
  WS02003066           JUNCTION      0.00   954.53     0  01:58           0        11.8       0.031
  WS02003059           JUNCTION      0.00   396.66     0  05:57           0        10.2       0.379
  WS02003067           JUNCTION      0.00   953.85     0  01:58           0        11.8       0.066
  WS02004401           JUNCTION      0.00   968.23     0  01:56           0          12       0.131
  WS02004402           JUNCTION      0.00   968.53     0  01:56           0          12       0.129
  WS02004403           JUNCTION      0.00   968.62     0  01:56           0          12       0.121
  WS02004404           JUNCTION      0.16   969.44     0  01:56     0.00457        11.9       0.094
  WS02004406           JUNCTION      0.00   970.80     0  01:56           0        11.9       0.230
  WS02004409           JUNCTION      0.00   968.68     0  01:56           0        11.9       0.096
  WS02004410           JUNCTION      0.00   956.91     0  01:57           0        11.9       0.116
  WS02004411           JUNCTION      0.00   951.75     0  01:58           0        11.9       0.124
  WS02004412           JUNCTION      0.00   953.57     0  01:58           0        11.8       0.139
  WS02004413           JUNCTION      0.00   953.69     0  01:58           0        11.8       0.217
  WS02004405           JUNCTION      0.04   971.09     0  01:56     0.00107        11.9       0.144
  WS02006109           JUNCTION      1.23   938.79     0  01:56      0.0347          12       0.123
  WS02006110           JUNCTION      0.00   938.67     0  01:56           0        11.9       0.101
  WS02006111           JUNCTION      0.00   937.79     0  01:56           0        11.9       0.012
  WS02006112           JUNCTION     30.57   966.47     0  01:56       0.112          12       0.174
  WS02006113           JUNCTION      0.00   938.50     0  01:56           0        11.9       0.041
  WS02006115           JUNCTION      0.00   966.91     0  01:56           0          12       0.108
  WS02006116           JUNCTION      0.00   967.78     0  01:56           0          12       0.113
  WS02006230           JUNCTION     10.28   533.84     0  06:40        0.29        8.86       0.114
  WS02006231           JUNCTION      0.00   523.22     0  06:40           0        8.56      -0.015
  WS02006232           JUNCTION      0.00   523.81     0  06:40           0        8.56       0.103
  WS02006234           JUNCTION      0.00   523.52     0  06:40           0        8.56       0.002
  WS02006235           JUNCTION      0.00   523.98     0  06:40           0         8.6       0.058
  WS02006238           JUNCTION      0.00   393.74     0  04:50           0        5.37       0.020
  WS02006240           JUNCTION      0.00   394.06     0  04:50           0        5.35       0.028
  WS02006242           JUNCTION      0.00   394.08     0  04:50           0        5.35       0.044
  WS02006243           JUNCTION      0.00   394.26     0  04:50           0        5.33      -0.050
  WS02006245           JUNCTION      0.00   394.29     0  04:50           0        5.33       0.039
  WS02006247           JUNCTION      0.00   394.74     0  04:49           0        5.33       0.006
  WS02006248           JUNCTION      0.00   394.39     0  04:50           0        5.33      -0.013
  WS02006249           JUNCTION      0.00   495.29     0  02:20           0        5.91       0.016
  WS02006239           JUNCTION      0.00   393.54     0  04:50           0        5.36      -0.010
  WS02006251           JUNCTION      0.08   494.17     0  02:20     0.00217        5.93      -0.009
  WS02006252           JUNCTION      0.00   400.00     0  03:30           0        5.28      -0.001
  WS02006253           JUNCTION      3.87   193.14     0  01:54      0.0129       0.646      -0.158
  WS02006256           JUNCTION      0.00   983.00     0  00:00           0        11.6      -0.008
  WS02004138           JUNCTION      0.00   380.00     0  00:00           0        10.1       0.064
  WS02004139           JUNCTION      0.32   396.51     0  00:00     0.00905        10.1       0.443
  WS02004407           JUNCTION      0.00   971.46     0  01:56           0        11.9       0.040
  WS02006228           JUNCTION      0.00   937.40     0  01:56           0        11.9       0.087
  WS02006229           JUNCTION      0.00   991.31     0  01:55           0        11.9       0.078
  WS02006280           JUNCTION      0.00   736.05     0  01:54           0        3.11       0.014
  WS02006284           JUNCTION      0.10   735.80     0  01:54      0.0027        3.11       0.019
  WS02006287           JUNCTION      0.00   735.61     0  01:54           0        3.11       0.023
  WSF200               JUNCTION      0.00   955.05     0  01:58           0        11.8       0.027
  HS02004901           JUNCTION     37.34    37.34     0  01:51       0.136       0.136       1.311
  HS02004881           JUNCTION     14.85   153.29     0  01:54       0.053       0.601       0.114
  HS02004876           JUNCTION     26.74   139.06     0  01:54       0.103       0.549       0.100
  HS02004870           JUNCTION     27.42   112.65     0  01:54         0.1       0.446       0.024
  HS02004862           JUNCTION     26.01    86.18     0  01:54       0.116       0.346       0.050
  HS02004856           JUNCTION     20.52    60.23     0  01:54      0.0756       0.231       0.629
  HS02004852           JUNCTION      0.00    40.37     0  01:54           0       0.155       0.036
  HS02004848           JUNCTION     56.97    56.97     0  01:56       0.261       0.261       0.018
  HS02004842           JUNCTION      0.00    18.18     0  02:06           0       0.119      12.306
  HS02004837           JUNCTION     52.39    67.87     0  01:54       0.353       0.459       0.177
  HS02004830           JUNCTION      0.15    67.98     0  01:54     0.00423       0.449       0.275
  HS02004824           JUNCTION     66.79   134.68     0  01:56       0.318       0.767       0.070
  HS02004817           JUNCTION      0.60   136.93     0  01:57      0.0169       0.783       2.175
  HS02004807           JUNCTION     50.62   184.13     0  01:55       0.184       0.952       0.460
  HS02004802           JUNCTION      0.00   183.90     0  01:56           0        0.95       0.414
  HS02004799           JUNCTION     40.40   470.74     0  01:53        0.15        1.87       0.159
  HS02004792           JUNCTION    183.39   430.97     0  01:53       0.729        1.72       0.023
  HS02004788           JUNCTION     59.53   248.79     0  01:53       0.273       0.991       0.039
  HS02004785           JUNCTION      0.15   189.55     0  01:53     0.00423        0.72       0.069
  HS02004777           JUNCTION      0.03   189.70     0  01:52    0.000846        0.72       0.728
  HS02004770           JUNCTION    153.57   190.37     0  01:52       0.587       0.722       0.428
  HS02004480           JUNCTION      0.00   554.33     0  01:53           0        2.18       0.044
  HS02004479           JUNCTION      0.00    83.75     0  01:53           0       0.323       0.228
  HS02004478           JUNCTION      0.00   735.56     0  01:54           0        3.11       0.010
  YS02001745           JUNCTION    446.25   446.25     0  02:16        3.95        3.95       0.292
  YS02001748           JUNCTION      0.04   451.40     0  02:16     0.00127        3.94       0.585
  YS02001751           JUNCTION      0.01   452.04     0  02:16     0.00031        3.92       0.614
  YS02001754           JUNCTION      0.26   451.13     0  02:16     0.00733         3.9       0.635
  YS02001762           JUNCTION      0.00   432.02     0  01:54           0        2.35       0.911
  YS02001765           JUNCTION      0.00   432.11     0  01:55           0        2.36       1.042
  YS02001767           JUNCTION      0.54   432.82     0  01:55      0.0151        2.38       1.524
  YS02001770           JUNCTION    558.16   699.09     0  02:42        4.36        5.13       0.607
  YS02001774           JUNCTION      0.00   699.10     0  02:42           0        3.51       0.710
  YS02001779           JUNCTION      0.01   699.12     0  02:42    0.000141        3.48       0.447
  YS02001882           JUNCTION      0.00    56.59     0  01:48           0      0.0287       8.721
  YS02001884           JUNCTION      0.00    65.66     0  01:46           0      0.0671      10.480
  YS02001759           JUNCTION    542.57   878.91     0  01:56        4.04         5.6       0.411
  YS02001887           JUNCTION    676.21   677.08     0  02:12        4.57         4.6       0.189
  YS02001890           JUNCTION      0.00   677.43     0  02:12           0        4.55       0.203
  YS02001898           JUNCTION      0.00   521.67     0  01:51           0        4.27       0.086
  YS02001901           JUNCTION      0.00   522.22     0  01:51           0        4.26       0.157
  YS02001904           JUNCTION      0.00   521.35     0  01:51           0        4.26       0.145
  YS02001907           JUNCTION      0.00  1166.91     0  01:52           0        9.98       0.247
  YS02001910           JUNCTION      0.00   652.78     0  01:52           0        5.73       0.219
  YS02001915           JUNCTION    394.70   652.43     0  01:52        3.28        5.79       0.103
  YS02001918           JUNCTION      0.00   371.39     0  01:52           0        2.54       0.081
  YS02001619           JUNCTION    388.44   388.44     0  02:16         3.3         3.3       0.370
  YS02001629           JUNCTION      0.00   221.42     0  01:48           0        1.43       2.065
  YS02001641           JUNCTION      0.00   455.84     0  01:48           0        5.09       0.412
  YS02001644           JUNCTION    424.99  1531.58     0  02:42        3.82        13.3       0.201
  YS02001652           JUNCTION      0.00   521.30     0  02:12           0        3.44       0.674
  YS02001655           JUNCTION      0.15   521.22     0  02:12     0.00434        3.46       0.734
  YS02001920           JUNCTION      2.87   371.02     0  01:52      0.0809        2.52       0.133
  YS02001923           JUNCTION      0.04   310.81     0  01:53     0.00106        2.42       0.040
  YS02001926           JUNCTION      0.05   324.30     0  01:50     0.00147        2.39       0.132
  YS02001929           JUNCTION    206.66   206.66     0  03:01        2.37        2.38       0.024
  YS02001658           JUNCTION      0.00   520.80     0  02:12           0        3.48       0.696
  YS02001661           JUNCTION      0.00   756.28     0  01:52           0        3.92      -0.083
  YS02001664           JUNCTION    496.40   496.40     0  02:16        3.49        3.92       0.174
  YS02001622           JUNCTION      0.00   388.94     0  02:16           0        3.29       0.976
  YS02001633           JUNCTION    431.52   457.93     0  01:48        3.93        5.24       0.613
  YS02001649           JUNCTION      0.00  1001.71     0  01:49           0        7.05       0.529
  YS02001757           JUNCTION      0.00  2146.43     0  01:55           0        11.3       0.818
  YS02001895           JUNCTION      0.00   521.59     0  01:51           0        4.27       0.123
  YS02001625           JUNCTION      0.00   437.98     0  02:16           0        3.34       1.186
  YS02163301           JUNCTION      0.00   221.32     0  01:47           0        1.42       1.704
  YS02163601           JUNCTION      0.11   457.45     0  01:48      0.0031        5.11       0.593
  YS02164001           JUNCTION      0.00   456.87     0  01:48           0        5.09       0.397
  YS02001647           JUNCTION      0.00   768.34     0  02:42           0        6.04       0.473
  YSB1154              JUNCTION     46.91    46.91     0  01:52        0.18       0.181       0.805
  YSB6556              JUNCTION      0.00    46.63     0  01:53           0       0.182       0.696
  YSB1174              JUNCTION     39.22    39.22     0  01:50       0.134       0.134       0.962
  YSB1171              JUNCTION      0.00    84.01     0  01:52           0       0.322       2.011
  YS02006553           JUNCTION      0.00   715.54     0  03:35           0        7.28       0.215
  YS02006561           JUNCTION      0.00   982.71     0  02:11           0        11.5       0.007
  YS02006556           JUNCTION      0.00   715.92     0  03:35           0        7.29       0.151
  YS02006558           JUNCTION    590.63   983.76     0  02:11        4.24        11.5       0.045
  YS02001783           JUNCTION      0.00   982.51     0  02:11           0        11.5       0.019
  YS02001784           JUNCTION      1.06   983.63     0  02:10      0.0299        11.5       0.031
  YS02001786           JUNCTION      0.06   983.76     0  02:15     0.00159        11.5       0.032
  YS02001788           JUNCTION      0.07   983.65     0  02:11       0.002        11.5       0.019
  YS02001790           JUNCTION      0.15   983.84     0  02:14     0.00437        11.5       0.018
  YS02001791           JUNCTION      0.00   983.93     0  02:11           0        11.5       0.004
  YS02001793           JUNCTION      0.00   984.24     0  02:13           0        11.5      -0.012
  WSC                  OUTFALL       0.00  1341.40     0  02:05           0        22.4       0.000
  JK-storage           STORAGE       0.00   984.88     0  02:11           0        11.6      -8.359
  CC-storage           STORAGE       0.00  2148.28     0  01:55           0        9.15       0.716
  XR-storage           STORAGE    1054.62  1054.62     0  03:01        15.5        16.1      -0.003
  
  
  **********************
  Node Surcharge Summary
  **********************
  
  Surcharging occurs when water rises above the top of the highest conduit.
  ---------------------------------------------------------------------
                                               Max. Height   Min. Depth
                                   Hours       Above Crown    Below Rim
  Node                 Type      Surcharged         Meters       Meters
  ---------------------------------------------------------------------
  WS02004401           JUNCTION        1.26          0.309        1.351
  WS02004402           JUNCTION        1.31          0.296        1.444
  WS02004403           JUNCTION        1.31          0.270        1.760
  WS02004404           JUNCTION        1.54          0.313        2.467
  WS02004406           JUNCTION        1.41          0.204        2.246
  WS02004413           JUNCTION        0.41          0.031        2.169
  WS02004405           JUNCTION        1.45          0.281        2.519
  WS02006109           JUNCTION        4.80          0.937        0.883
  WS02006110           JUNCTION        2.92          0.634        1.216
  WS02006111           JUNCTION        0.29          0.226        1.644
  WS02006112           JUNCTION        3.24          0.654        1.026
  WS02006113           JUNCTION        0.34          0.242        1.688
  WS02006115           JUNCTION        0.71          0.303        1.947
  WS02006116           JUNCTION        0.77          0.287        2.003
  WS02006230           JUNCTION        2.73          0.900        0.670
  WS02006231           JUNCTION        3.17          0.899        0.631
  WS02006232           JUNCTION        4.73          1.003        0.477
  WS02006234           JUNCTION        4.44          0.872        0.368
  WS02006235           JUNCTION        4.55          0.886        0.404
  WS02006238           JUNCTION        4.60          0.892        0.538
  WS02006240           JUNCTION        4.45          0.734        0.656
  WS02006242           JUNCTION        4.59          0.731        0.089
  WS02006243           JUNCTION        3.57          0.588        0.182
  WS02006245           JUNCTION        3.37          0.512        0.338
  WS02006247           JUNCTION        3.40          0.492        0.268
  WS02006248           JUNCTION        3.16          0.380        0.000
  WS02006249           JUNCTION        3.23          0.390        0.000
  WS02006239           JUNCTION        4.50          0.800        0.490
  WS02006251           JUNCTION        1.80          0.311        0.869
  WS02006252           JUNCTION        3.40          0.418        0.682
  WS02006253           JUNCTION        2.07          0.482        1.998
  WS02006256           JUNCTION        6.80          2.050        0.000
  WS02006228           JUNCTION        4.78          1.109        1.091
  HS02004817           JUNCTION        0.15          0.011        1.729
  YS02001748           JUNCTION        6.04          0.300        0.890
  YS02001751           JUNCTION        6.08          0.570        0.630
  YS02001754           JUNCTION        6.14          0.783        0.367
  YS02001762           JUNCTION        6.19          1.035        0.115
  YS02001765           JUNCTION        6.18          0.979        0.121
  YS02001767           JUNCTION        6.18          0.936        0.094
  YS02001770           JUNCTION        6.18          0.897        0.023
  YS02001774           JUNCTION        6.19          0.982        0.068
  YS02001779           JUNCTION        6.13          0.680        0.000
  YS02001882           JUNCTION        1.80          0.675        0.155
  YS02001884           JUNCTION        1.81          0.705        0.165
  YS02001759           JUNCTION        6.20          1.070        0.140
  YS02001887           JUNCTION        1.87          0.775        0.175
  YS02001890           JUNCTION        1.89          0.760        0.000
  YS02001898           JUNCTION        1.77          0.537        0.203
  YS02001901           JUNCTION        1.85          0.681        0.189
  YS02001904           JUNCTION        1.83          0.637        0.213
  YS02001907           JUNCTION        2.38          0.950        0.000
  YS02001910           JUNCTION        1.93          0.938        0.162
  YS02001915           JUNCTION        1.79          0.839        0.161
  YS02001918           JUNCTION        1.65          0.704        0.106
  YS02001619           JUNCTION        6.09          0.571        0.039
  YS02001629           JUNCTION        6.09          0.466        0.004
  YS02001641           JUNCTION        6.18          0.935        0.165
  YS02001644           JUNCTION        6.18          0.920        0.000
  YS02001652           JUNCTION        6.15          1.029        0.101
  YS02001655           JUNCTION        6.10          1.021        0.179
  YS02001920           JUNCTION        1.67          0.891        0.249
  YS02001923           JUNCTION        0.01          0.500        0.320
  YS02001926           JUNCTION        0.01          0.900        0.000
  YS02001658           JUNCTION        6.05          0.956        0.344
  YS02001661           JUNCTION        0.14          0.855        0.535
  YS02001622           JUNCTION        6.10          0.567        0.053
  YS02001633           JUNCTION        6.17          0.929        0.131
  YS02001649           JUNCTION        6.19          1.050        0.000
  YS02001757           JUNCTION        6.23          1.171        0.039
  YS02001895           JUNCTION        1.78          0.567        0.183
  YS02001625           JUNCTION        6.15          0.780        0.000
  YS02163301           JUNCTION        6.17          0.882        0.148
  YS02163601           JUNCTION        6.20          0.989        0.091
  YS02164001           JUNCTION        6.17          0.919        0.181
  YS02001647           JUNCTION        6.15          0.799        0.101
  YS02006553           JUNCTION        2.46          0.971        0.219
  YS02006561           JUNCTION        1.69          0.295        0.855
  YS02006556           JUNCTION        2.10          0.897        0.453
  YS02006558           JUNCTION        2.07          0.880        0.520
  YS02001783           JUNCTION        1.94          0.828        0.772
  YS02001784           JUNCTION        1.91          0.902        0.588
  YS02001786           JUNCTION        1.86          0.716        0.714
  YS02001788           JUNCTION        1.80          0.654        0.826
  YS02001790           JUNCTION        2.58          1.157        0.000
  YS02001791           JUNCTION        2.67          1.782        0.138
  YS02001793           JUNCTION        2.93          2.575        0.025
  
  
  *********************
  Node Flooding Summary
  *********************
  
  Flooding refers to all water that overflows a node, whether it ponds or not.
  --------------------------------------------------------------------------
                                                             Total   Maximum
                                 Maximum   Time of Max       Flood    Ponded
                        Hours       Rate    Occurrence      Volume     Depth
  Node                 Flooded       LPS   days hr:min    10^6 ltr    Meters
  --------------------------------------------------------------------------
  WS02006248              0.16     58.62      0  01:57       0.013     0.000
  WS02006249              1.88    313.11      0  02:20       0.577     0.000
  WS02006256              4.31    978.40      0  00:00       8.317     0.000
  YS02001779              3.32    699.12      0  02:42       3.459     0.000
  YS02001890              0.81    161.15      0  02:12       0.274     0.000
  YS02001907              1.53    714.76      0  02:16       2.681     0.000
  YS02001644              5.64   1531.58      0  02:42      11.615     0.000
  YS02001926              0.01    212.89      0  01:51       0.000     0.000
  YS02001649              0.01     22.67      0  03:56       0.000     0.000
  YS02001625              2.14    437.59      0  02:16       1.967     0.000
  YS02001790              0.01    182.44      0  01:44       0.000     0.000
  JK-storage              0.79    866.78      0  01:50       1.008     0.000
  XR-storage              4.67    674.61      0  03:01       5.098     0.000
  
  
  **********************
  Storage Volume Summary
  **********************
  
  --------------------------------------------------------------------------------------------------
                         Average     Avg  Evap Exfil       Maximum     Max    Time of Max    Maximum
                          Volume    Pcnt  Pcnt  Pcnt        Volume    Pcnt     Occurrence    Outflow
  Storage Unit           1000 m3    Full  Loss  Loss       1000 m3    Full    days hr:min        LPS
  --------------------------------------------------------------------------------------------------
  JK-storage               0.150      52     0     0         0.291     100       0  01:44     983.00
  CC-storage               3.429      22     0     0         3.976      25       0  02:41     400.00
  XR-storage               0.863      93     0     0         0.926     100       0  02:07     380.00
  
  
  ***********************
  Outfall Loading Summary
  ***********************
  
  ---------------------------------------------------------------------------------------------------------------------------------
                         Flow       Avg       Max       Total         Total         Total         Total         Total         Total
                         Freq      Flow      Flow      Volume           COD            SS            TN            TP         NH4-N
  Outfall Node           Pcnt       LPS       LPS    10^6 ltr            kg            kg            kg            kg            kg
  ---------------------------------------------------------------------------------------------------------------------------------
  WSC                   99.98    869.92   1341.40      22.353      2713.838      4859.860       144.895        16.462        86.090
  ---------------------------------------------------------------------------------------------------------------------------------
  System                99.98    869.92   1341.40      22.353      2713.838      4859.860       144.895        16.462        86.090
  
  
  ********************
  Link Flow Summary
  ********************
  
  -----------------------------------------------------------------------------
                                 Maximum  Time of Max   Maximum    Max/    Max/
                                  |Flow|   Occurrence   |Veloc|    Full    Full
  Link                 Type          LPS  days hr:min     m/sec    Flow   Depth
  -----------------------------------------------------------------------------
  WS02003066WSF200     CONDUIT    955.05     0  01:58      3.01    0.16    0.32
  WS02006287WS02006284 CONDUIT    735.70     0  01:54      2.45    0.34    0.41
  WS02006284WS02006280 CONDUIT    736.05     0  01:54      2.68    0.31    0.38
  WS02006280WS02006229 CONDUIT    759.17     0  01:55      4.30    0.16    0.58
  WS02006229WS02006228 CONDUIT    937.40     0  01:56      1.86    3.10    1.00
  WS02006256WS02006235 CONDUIT    288.60     0  00:00      4.23    3.05    1.00
  WS02006253WS02006251 CONDUIT    189.09     0  01:54      0.76    0.57    1.00
  WS02006252WS02006251 CONDUIT    401.26     0  04:48      3.19    1.47    1.00
  WS02006251WS02006249 CONDUIT    495.29     0  02:20      1.29    1.43    1.00
  WS02006249WS02006248 CONDUIT    394.39     0  04:50      1.13    2.16    1.00
  WS02006248WS02006247 CONDUIT    394.74     0  04:49      1.10    0.86    1.00
  WS02006247WS02006245 CONDUIT    394.29     0  04:50      1.07    3.13    1.00
  WS02006245WS02006243 CONDUIT    394.26     0  04:50      1.08    1.17    1.00
  WS02006243WS02006242 CONDUIT    394.08     0  04:50      1.02    0.84    1.00
  WS02006242WS02006240 CONDUIT    394.06     0  04:50      1.02    1.57    1.00
  WS02006240WS02006239 CONDUIT    393.54     0  04:50      1.02    1.24    1.00
  WS02006239WS02006238 CONDUIT    393.74     0  04:50      1.02    1.26    1.00
  WS02006238WS02006235 CONDUIT    393.91     0  04:50      1.46    0.88    1.00
  WS02006235WS02006234 CONDUIT    523.52     0  06:40      1.36    5.52    1.00
  WS02006234WS02006232 CONDUIT    523.81     0  06:40      1.39    1.06    1.00
  WS02006232WS02006231 CONDUIT    523.22     0  06:40      1.36    1.10    1.00
  WS02006231WS02006230 CONDUIT    523.56     0  06:40      1.36    7.94    1.00
  WS02006230WS02006229 CONDUIT    534.92     0  06:40      1.39   11.90    1.00
  WS02006228WS02006109 CONDUIT    937.56     0  01:56      1.87    4.10    1.00
  WS02006116WS02004401 CONDUIT    968.23     0  01:56      1.23    1.33    1.00
  WS02006115WS02006116 CONDUIT    967.78     0  01:56      1.23    1.24    1.00
  WS02006113WS02006111 CONDUIT    937.79     0  01:56      2.60    1.12    1.00
  WS02006112WS02006115 CONDUIT    966.91     0  01:56      1.23    0.57    1.00
  WS02006111WS02006112 CONDUIT    937.72     0  01:56      1.87    0.45    1.00
  WS02006110WS02006113 CONDUIT    938.50     0  01:56      1.87    0.85    1.00
  WS02006109WS02006110 CONDUIT    938.67     0  01:56      1.87    1.80    1.00
  WS02004411WS02004412 CONDUIT    953.57     0  01:58      1.26    1.35    0.93
  WS02004401WS02004402 CONDUIT    968.53     0  01:56      1.23    1.16    1.00
  WS02004413WS02003067 CONDUIT    953.85     0  01:58      1.57    0.41    0.72
  WS02004412WS02004413 CONDUIT    953.69     0  01:58      1.23    0.64    0.96
  WS02004410WS02004411 CONDUIT    951.75     0  01:58      1.24    1.30    0.95
  WS02004409WS02004410 CONDUIT    956.91     0  01:57      1.24    1.24    0.97
  WS02004407WS02004409 CONDUIT    968.68     0  01:56      1.73    0.34    0.69
  WS02004406WS02004407 CONDUIT    971.46     0  01:56      1.65    0.43    0.70
  WS02004405WS02004406 CONDUIT    970.80     0  01:56      1.24    1.91    1.00
  WS02004404WS02004405 CONDUIT    971.05     0  01:56      1.24    9.51    1.00
  WS02004403WS02004404 CONDUIT    969.28     0  01:56      1.23    0.70    1.00
  WS02004402WS02004403 CONDUIT    968.62     0  01:56      1.23    1.39    1.00
  WS02004139WS02001211 CONDUIT    382.21     0  05:58      0.90    0.48    0.64
  WS02004138WS02004139 CONDUIT    396.19     0  00:00      3.65    0.08    0.47
  WS02003067WS02003066 CONDUIT    954.53     0  01:58      1.66    0.31    0.51
  WS02001213WS02003059 CONDUIT    396.66     0  05:57      0.88    0.65    0.87
  WS02001212WS02001213 CONDUIT    393.62     0  05:57      1.32    0.61    0.56
  WS02001211WS02001212 CONDUIT    391.67     0  05:58      0.78    0.30    0.71
  WS02003072WS02003073 CONDUIT   1339.24     0  02:04      1.96    2.89    0.58
  WS02003069WS02003072 CONDUIT   1338.97     0  02:04      1.82    0.64    0.62
  WS02003060WS02003069 CONDUIT   1338.68     0  02:03      2.03    0.52    0.57
  WS02003059WS02003060 CONDUIT    400.54     0  05:57      0.95    0.26    0.77
  HS02004901HS02004770 CONDUIT     36.83     0  01:52      0.10    0.14    0.54
  HS02004876HS02004881 CONDUIT    139.06     0  01:54      1.26    1.48    0.16
  HS02004870HS02004876 CONDUIT    112.62     0  01:54      0.85    0.07    0.19
  HS02004842HS02004848 CONDUIT     18.18     0  02:06      0.08    0.01    0.34
  HS02004837HS02004842 CONDUIT     18.64     0  02:07      0.42    0.01    0.35
  HS02004830HS02004837 CONDUIT     67.83     0  01:54      0.68    0.07    0.14
  HS02004824HS02004830 CONDUIT     68.05     0  01:56      0.62    0.09    0.18
  HS02004817HS02004824 CONDUIT    136.33     0  01:57      0.32    0.06    0.60
  HS02004770HS02004777 CONDUIT    189.67     0  01:52      0.49    0.35    0.55
  HS02004799HS02004480 CONDUIT    470.62     0  01:53      1.09    0.59    0.62
  HS02004792HS02004799 CONDUIT    430.86     0  01:53      1.22    0.26    0.50
  HS02004788HS02004792 CONDUIT    248.72     0  01:54      1.29    0.16    0.28
  HS02004785HS02004788 CONDUIT    189.52     0  01:53      0.92    1.43    0.30
  HS02004777HS02004785 CONDUIT    189.40     0  01:53      0.59    0.23    0.46
  HS02004480HS02004478 CONDUIT    554.36     0  01:53      1.59    2.33    0.50
  HS02004479HS02004480 CONDUIT     83.72     0  01:53      0.37    0.08    0.59
  HS02004862HS02004870 CONDUIT     86.17     0  01:55      0.82    0.09    0.15
  HS02004848HS02004852 CONDUIT     40.37     0  01:54      0.54    0.05    0.11
  HS02004856HS02004862 CONDUIT     60.18     0  01:54      0.61    0.06    0.14
  HS02004852HS02004856 CONDUIT     40.43     0  01:55      0.35    0.05    0.17
  HS02004802HS02004478 CONDUIT    184.71     0  01:57      0.53    0.16    0.50
  HS02004478WS02006287 CONDUIT    735.61     0  01:54      2.18    0.21    0.38
  HS02004817HS02004807 CONDUIT    137.14     0  01:57      0.26    0.08    0.77
  HS02004807HS02004802 CONDUIT    183.90     0  01:56      0.47    0.35    0.56
  YS02001759YS02001757 CONDUIT    877.98     0  01:56      1.12    0.62    1.00
  YS02001762YS02001759 CONDUIT    432.26     0  01:55      0.55    0.50    1.00
  YS02001765YS02001762 CONDUIT    432.02     0  01:54      0.55    0.41    1.00
  YS02001770YS02001767 CONDUIT    432.28     0  01:55      0.55    1.71    1.00
  YS02001774YS02001770 CONDUIT    699.10     0  02:42      0.89    0.45    1.00
  YS02001779YS02001774 CONDUIT    699.11     0  02:42      0.89    0.35    1.00
  YS02001649YS02001757 CONDUIT   1001.65     0  01:49      1.28    0.61    1.00
  YS02001767YS02001765 CONDUIT    432.11     0  01:55      0.55    0.54    1.00
  YS02006561YS02001783 CONDUIT    982.51     0  02:11      2.15    0.51    1.00
  YS02001783YS02001784 CONDUIT    982.57     0  02:10      1.95    1.35    1.00
  YS02001784YS02001785 CONDUIT    983.70     0  02:15      1.96    2.29    1.00
  YS02001788YS02001790 CONDUIT    983.68     0  02:14      2.44    0.72    1.00
  YS02001790YS02001791 CONDUIT    983.93     0  02:11      2.91    1.07    1.00
  YS02001791YS02001793 CONDUIT    984.24     0  02:13      5.78    0.42    1.00
  YS02001910YS02001907 CONDUIT    653.11     0  01:52      0.83    0.37    1.00
  YS02001786YS02001788 CONDUIT    983.58     0  02:11      2.31    1.90    1.00
  YS02001915YS02001910 CONDUIT    652.78     0  01:52      0.83    0.32    1.00
  YS02001918YS02001915 CONDUIT    372.43     0  01:52      0.48    0.21    1.00
  YS02001923YS02001920 CONDUIT    368.15     0  01:52      0.82    0.17    1.00
  YS02001926YS02001923 CONDUIT    310.77     0  01:53      0.92    0.44    1.00
  YS02001929YS02001926 CONDUIT    255.42     0  01:52      0.98    0.12    0.99
  YS02001920YS02001918 CONDUIT    371.39     0  01:52      0.77    0.36    1.00
  YS02001629YS02163301 CONDUIT    221.32     0  01:47      0.28    0.27    1.00
  YS02001619YS02001622 CONDUIT    388.94     0  02:16      0.74    0.57    1.00
  YS02001622YS02001625 CONDUIT    388.75     0  02:16      0.49    0.21    1.00
  YS02001625YS02001629 CONDUIT    221.42     0  01:48      0.29    0.11    1.00
  YS02163301YS02001633 CONDUIT    222.72     0  01:47      0.28    0.21    1.00
  YS02163601YS02164001 CONDUIT    456.87     0  01:48      0.58    0.40    1.00
  YS02164001YS02001641 CONDUIT    455.84     0  01:48      0.58    0.62    1.00
  YS02001641YS02001644 CONDUIT    454.94     0  01:48      0.58    1.47    1.00
  YS02001647YS02001649 CONDUIT    768.34     0  02:42      0.98    0.41    1.00
  YS02006553YS02006556 CONDUIT    715.92     0  03:35      0.91    0.61    1.00
  YS02006556YS02006558 CONDUIT    716.34     0  03:35      0.91    0.57    1.00
  YSB6556YSB1171       CONDUIT     46.63     0  01:54      0.14    0.05    0.84
  YS02001907YS02006553 CONDUIT    715.54     0  03:35      0.80    0.84    1.00
  YS02006558YS02006561 CONDUIT    982.71     0  02:11      3.48    2.17    1.00
  YS02001633YS02163601 CONDUIT    457.34     0  01:48      0.58    0.48    1.00
  YS02001644YS02001647 CONDUIT    768.36     0  02:42      0.98    0.45    1.00
  YS02001745YS02001748 CONDUIT    451.35     0  02:16      1.67    0.17    0.97
  YS02001748YS02001751 CONDUIT    452.03     0  02:16      1.21    0.23    1.00
  YS02001751YS02001754 CONDUIT    450.87     0  02:16      1.02    0.22    1.00
  YS02001754YS02001757 CONDUIT    450.85     0  02:16      0.57    0.18    1.00
  YS02001882YS02001884 CONDUIT     56.59     0  01:48      0.16    0.06    1.00
  YS02001884YS02001887 CONDUIT     65.66     0  01:46      0.12    0.09    1.00
  YS02001890YS02001895 CONDUIT    521.59     0  01:51      0.66    0.24    1.00
  YS02001895YS02001898 CONDUIT    521.67     0  01:51      0.66    0.91    1.00
  YS02001898YS02001901 CONDUIT    522.22     0  01:51      0.66    0.34    1.00
  YS02001901YS02001904 CONDUIT    521.35     0  01:51      0.66    0.81    1.00
  YS02001904YS02001907 CONDUIT    523.12     0  01:50      0.67    0.18    1.00
  YS02001887YS02001890 CONDUIT    677.43     0  02:12      0.86    1.16    1.00
  YS02001652YS02001649 CONDUIT    521.67     0  02:12      0.71    0.26    1.00
  YS02001655YS02001652 CONDUIT    521.30     0  02:12      1.09    0.25    1.00
  YS02001658YS02001655 CONDUIT    521.07     0  02:12      1.41    0.22    1.00
  YS02001661YS02001658 CONDUIT    520.80     0  02:12      1.78    0.20    1.00
  YS02001664YS02001661 CONDUIT    756.28     0  01:52      1.69    0.24    0.76
  YSB1154YSB6556       CONDUIT     46.63     0  01:53      0.15    0.08    0.75
  YSB1174YSB1171       CONDUIT     38.39     0  01:50      0.11    0.06    0.87
  YSB1171HS02004479    CONDUIT     83.75     0  01:53      0.54    0.06    0.70
  HS02004881HS02006253 CONDUIT    157.89     0  01:54      2.75    0.03    0.54
  YS02001793JiankangQianchi CONDUIT    984.88     0  02:11     16.70    0.08    1.00
  YS02001757CaochengTiaoxuchi CONDUIT   2148.28     0  01:55      3.55    0.94    1.00
  WSF200WS02003060     CONDUIT    955.96     0  01:58      1.97    0.21    0.45
  1                    CONDUIT   1341.40     0  02:05      3.59    0.47    0.48
  CC-Pump-1            PUMP       200.00     0  02:20              1.00
  CC-Pump-2            PUMP       200.00     0  03:30              1.00
  JK-Pump-1            PUMP       300.00     0  00:00              1.00
  JK-Pump-2            PUMP       683.00     0  00:00              1.00
  XR-Pump-1            PUMP        95.00     0  00:00              1.00
  XR-Pump-2            PUMP        95.00     0  00:00              1.00
  XR-Pump-3            PUMP        95.00     0  00:00              1.00
  XR-Pump-4            PUMP        95.00     0  00:00              1.00
  
  
  ***************************
  Flow Classification Summary
  ***************************
  
  -------------------------------------------------------------------------------------
                      Adjusted    ---------- Fraction of Time in Flow Class ---------- 
                       /Actual         Up    Down  Sub   Sup   Up    Down  Norm  Inlet 
  Conduit               Length    Dry  Dry   Dry   Crit  Crit  Crit  Crit  Ltd   Ctrl  
  -------------------------------------------------------------------------------------
  WS02003066WSF200        1.00   0.01  0.05  0.00  0.00  0.94  0.00  0.00  0.36  0.00
  WS02006287WS02006284    1.00   0.02  0.01  0.00  0.65  0.31  0.00  0.00  0.63  0.00
  WS02006284WS02006280    1.00   0.03  0.00  0.00  0.00  0.00  0.00  0.97  0.00  0.00
  WS02006280WS02006229    1.00   0.03  0.00  0.00  0.02  0.03  0.00  0.92  0.02  0.00
  WS02006229WS02006228    1.00   0.00  0.00  0.00  1.00  0.00  0.00  0.00  0.00  0.00
  WS02006256WS02006235    1.00   0.00  0.00  0.00  1.00  0.00  0.00  0.00  0.00  0.00
  WS02006253WS02006251    1.00   0.01  0.01  0.00  0.97  0.00  0.01  0.00  0.00  0.00
  WS02006252WS02006251    1.00   0.09  0.00  0.00  0.21  0.00  0.70  0.00  0.00  0.00
  WS02006251WS02006249    1.00   0.00  0.00  0.00  1.00  0.00  0.00  0.00  0.18  0.00
  WS02006249WS02006248    1.00   0.00  0.01  0.00  0.95  0.00  0.05  0.00  0.00  0.00
  WS02006248WS02006247    1.00   0.01  0.00  0.00  0.98  0.00  0.00  0.01  0.06  0.00
  WS02006247WS02006245    1.00   0.01  0.00  0.00  0.97  0.00  0.00  0.02  0.00  0.00
  WS02006245WS02006243    1.00   0.00  0.00  0.00  0.96  0.00  0.00  0.03  0.01  0.00
  WS02006243WS02006242    1.00   0.00  0.00  0.00  0.99  0.00  0.00  0.00  0.20  0.00
  WS02006242WS02006240    1.00   0.00  0.00  0.00  0.99  0.00  0.00  0.00  0.00  0.00
  WS02006240WS02006239    1.00   0.00  0.00  0.00  0.96  0.00  0.00  0.04  0.01  0.00
  WS02006239WS02006238    1.00   0.00  0.00  0.00  1.00  0.00  0.00  0.00  0.12  0.00
  WS02006238WS02006235    1.00   0.00  0.00  0.00  1.00  0.00  0.00  0.00  0.00  0.00
  WS02006235WS02006234    1.00   0.00  0.00  0.00  0.97  0.00  0.03  0.00  0.00  0.00
  WS02006234WS02006232    1.00   0.00  0.00  0.00  1.00  0.00  0.00  0.00  0.08  0.00
  WS02006232WS02006231    1.00   0.00  0.00  0.00  1.00  0.00  0.00  0.00  0.00  0.00
  WS02006231WS02006230    1.00   0.00  0.00  0.00  0.82  0.00  0.18  0.00  0.00  0.00
  WS02006230WS02006229    1.00   0.00  0.00  0.00  1.00  0.00  0.00  0.00  0.01  0.00
  WS02006228WS02006109    1.00   0.00  0.00  0.00  1.00  0.00  0.00  0.00  0.00  0.00
  WS02006116WS02004401    1.00   0.01  0.00  0.00  0.99  0.00  0.00  0.00  0.01  0.00
  WS02006115WS02006116    1.00   0.01  0.00  0.00  0.98  0.00  0.00  0.02  0.01  0.00
  WS02006113WS02006111    1.00   0.00  0.00  0.00  0.06  0.94  0.00  0.00  0.12  0.00
  WS02006112WS02006115    1.00   0.01  0.00  0.00  0.99  0.00  0.00  0.00  0.00  0.00
  WS02006111WS02006112    1.00   0.01  0.00  0.00  0.99  0.00  0.00  0.00  0.79  0.00
  WS02006110WS02006113    1.00   0.00  0.00  0.00  1.00  0.00  0.00  0.00  0.00  0.00
  WS02006109WS02006110    1.00   0.00  0.00  0.00  1.00  0.00  0.00  0.00  0.00  0.00
  WS02004411WS02004412    1.00   0.04  0.00  0.00  0.96  0.00  0.00  0.00  0.00  0.00
  WS02004401WS02004402    1.00   0.01  0.00  0.00  0.99  0.00  0.00  0.00  0.01  0.00
  WS02004413WS02003067    1.00   0.05  0.01  0.00  0.00  0.00  0.95  0.00  0.00  0.00
  WS02004412WS02004413    1.00   0.05  0.00  0.00  0.95  0.00  0.00  0.00  0.00  0.00
  WS02004410WS02004411    1.00   0.04  0.00  0.00  0.96  0.00  0.00  0.00  0.00  0.00
  WS02004409WS02004410    1.00   0.04  0.00  0.00  0.96  0.00  0.00  0.00  0.00  0.00
  WS02004407WS02004409    1.00   0.04  0.00  0.00  0.95  0.01  0.00  0.00  0.81  0.00
  WS02004406WS02004407    1.00   0.00  0.04  0.00  0.96  0.00  0.00  0.00  0.00  0.00
  WS02004405WS02004406    1.00   0.00  0.00  0.00  1.00  0.00  0.00  0.00  0.02  0.00
  WS02004404WS02004405    1.00   0.00  0.00  0.00  1.00  0.00  0.00  0.00  0.00  0.00
  WS02004403WS02004404    1.00   0.00  0.01  0.00  0.99  0.00  0.00  0.00  0.02  0.00
  WS02004402WS02004403    1.00   0.01  0.00  0.00  0.99  0.00  0.00  0.00  0.00  0.00
  WS02004139WS02001211    1.00   0.00  0.00  0.00  1.00  0.00  0.00  0.00  0.00  0.00
  WS02004138WS02004139    1.00   0.00  0.00  0.00  1.00  0.00  0.00  0.00  1.00  0.00
  WS02003067WS02003066    1.00   0.05  0.00  0.00  0.94  0.00  0.00  0.00  0.00  0.00
  WS02001213WS02003059    1.00   0.00  0.00  0.00  1.00  0.00  0.00  0.00  0.00  0.00
  WS02001212WS02001213    1.00   0.00  0.00  0.00  0.94  0.00  0.06  0.00  0.00  0.00
  WS02001211WS02001212    1.00   0.00  0.00  0.00  1.00  0.00  0.00  0.00  0.00  0.00
  WS02003072WS02003073    1.00   0.00  0.00  0.00  0.00  0.00  0.00  1.00  0.00  0.00
  WS02003069WS02003072    1.00   0.00  0.00  0.00  1.00  0.00  0.00  0.00  0.10  0.00
  WS02003060WS02003069    1.00   0.00  0.00  0.00  0.99  0.01  0.00  0.00  0.08  0.00
  WS02003059WS02003060    1.00   0.00  0.00  0.00  1.00  0.00  0.00  0.00  0.00  0.00
  HS02004901HS02004770    1.00   0.03  0.00  0.00  0.97  0.00  0.00  0.00  0.00  0.00
  HS02004876HS02004881    1.00   0.01  0.00  0.00  0.91  0.08  0.00  0.00  0.00  0.00
  HS02004870HS02004876    1.00   0.00  0.00  0.00  1.00  0.00  0.00  0.00  0.95  0.00
  HS02004842HS02004848    1.00   0.00  0.03  0.00  0.97  0.00  0.00  0.00  0.56  0.00
  HS02004837HS02004842    1.00   0.00  0.00  0.00  1.00  0.00  0.00  0.00  0.11  0.00
  HS02004830HS02004837    1.00   0.00  0.00  0.00  1.00  0.00  0.00  0.00  0.99  0.00
  HS02004824HS02004830    1.00   0.00  0.00  0.00  1.00  0.00  0.00  0.00  0.03  0.00
  HS02004817HS02004824    1.00   0.00  0.00  0.00  1.00  0.00  0.00  0.00  0.92  0.00
  HS02004770HS02004777    1.00   0.00  0.03  0.00  0.97  0.00  0.00  0.00  0.02  0.00
  HS02004799HS02004480    1.00   0.00  0.01  0.00  0.97  0.00  0.02  0.00  0.00  0.00
  HS02004792HS02004799    1.00   0.00  0.00  0.00  1.00  0.00  0.00  0.00  0.98  0.00
  HS02004788HS02004792    1.00   0.00  0.00  0.00  1.00  0.00  0.00  0.00  0.98  0.00
  HS02004785HS02004788    1.00   0.00  0.00  0.00  1.00  0.00  0.00  0.00  0.00  0.00
  HS02004777HS02004785    1.00   0.00  0.00  0.00  1.00  0.00  0.00  0.00  0.11  0.00
  HS02004480HS02004478    1.00   0.03  0.00  0.00  0.72  0.00  0.00  0.25  0.00  0.00
  HS02004479HS02004480    1.00   0.01  0.00  0.00  0.99  0.00  0.00  0.00  0.11  0.00
  HS02004862HS02004870    1.00   0.00  0.00  0.00  1.00  0.00  0.00  0.00  0.03  0.00
  HS02004848HS02004852    1.00   0.03  0.00  0.00  0.97  0.00  0.00  0.00  0.79  0.00
  HS02004856HS02004862    1.00   0.00  0.04  0.00  0.96  0.00  0.00  0.00  0.84  0.00
  HS02004852HS02004856    1.00   0.03  0.00  0.00  0.97  0.00  0.00  0.00  0.77  0.00
  HS02004802HS02004478    1.00   0.03  0.00  0.00  0.97  0.00  0.00  0.00  0.02  0.00
  HS02004478WS02006287    1.00   0.03  0.00  0.00  0.78  0.18  0.00  0.00  0.62  0.00
  HS02004817HS02004807    1.00   0.00  0.03  0.00  0.97  0.00  0.00  0.00  0.01  0.00
  HS02004807HS02004802    1.00   0.03  0.00  0.00  0.97  0.00  0.00  0.00  0.00  0.00
  YS02001759YS02001757    1.00   0.00  0.00  0.00  1.00  0.00  0.00  0.00  0.15  0.00
  YS02001762YS02001759    1.00   0.00  0.00  0.00  1.00  0.00  0.00  0.00  0.02  0.00
  YS02001765YS02001762    1.00   0.00  0.00  0.00  1.00  0.00  0.00  0.00  0.13  0.00
  YS02001770YS02001767    1.00   0.00  0.00  0.00  1.00  0.00  0.00  0.00  0.00  0.00
  YS02001774YS02001770    1.00   0.00  0.03  0.00  0.97  0.00  0.00  0.00  0.02  0.00
  YS02001779YS02001774    1.00   0.00  0.00  0.00  1.00  0.00  0.00  0.00  0.17  0.00
  YS02001649YS02001757    1.00   0.00  0.00  0.00  1.00  0.00  0.00  0.00  0.15  0.00
  YS02001767YS02001765    1.00   0.00  0.00  0.00  1.00  0.00  0.00  0.00  0.00  0.00
  YS02006561YS02001783    1.00   0.04  0.00  0.00  0.38  0.58  0.00  0.00  0.44  0.00
  YS02001783YS02001784    1.00   0.00  0.04  0.00  0.96  0.00  0.00  0.00  0.00  0.00
  YS02001784YS02001785    1.00   0.00  0.00  0.00  1.00  0.00  0.00  0.00  0.16  0.00
  YS02001788YS02001790    1.00   0.00  0.00  0.00  0.42  0.58  0.00  0.00  0.37  0.00
  YS02001790YS02001791    1.00   0.00  0.00  0.00  0.40  0.60  0.00  0.00  0.42  0.00
  YS02001791YS02001793    1.00   0.00  0.00  0.00  0.43  0.57  0.00  0.00  0.02  0.00
  YS02001910YS02001907    1.00   0.00  0.00  0.00  0.99  0.00  0.00  0.01  0.12  0.00
  YS02001786YS02001788    1.00   0.00  0.00  0.00  0.40  0.60  0.00  0.00  0.00  0.00
  YS02001915YS02001910    1.00   0.00  0.00  0.00  0.99  0.01  0.00  0.00  0.13  0.00
  YS02001918YS02001915    1.00   0.00  0.00  0.00  0.99  0.00  0.00  0.00  0.51  0.00
  YS02001923YS02001920    1.00   0.00  0.00  0.00  1.00  0.00  0.00  0.00  0.74  0.00
  YS02001926YS02001923    1.00   0.00  0.02  0.00  0.21  0.00  0.77  0.00  0.00  0.00
  YS02001929YS02001926    1.00   0.00  0.03  0.00  0.97  0.00  0.00  0.00  0.65  0.00
  YS02001920YS02001918    1.00   0.00  0.00  0.00  1.00  0.00  0.00  0.00  0.00  0.00
  YS02001629YS02163301    1.00   0.03  0.00  0.00  0.97  0.00  0.00  0.00  0.00  0.00
  YS02001619YS02001622    1.00   0.03  0.00  0.00  0.97  0.00  0.00  0.00  0.00  0.00
  YS02001622YS02001625    1.00   0.03  0.00  0.00  0.97  0.00  0.00  0.00  0.03  0.00
  YS02001625YS02001629    1.00   0.03  0.01  0.00  0.95  0.00  0.01  0.00  0.00  0.00
  YS02163301YS02001633    1.00   0.00  0.03  0.00  0.97  0.00  0.00  0.00  0.00  0.00
  YS02163601YS02164001    1.00   0.00  0.02  0.00  0.98  0.00  0.00  0.00  0.00  0.00
  YS02164001YS02001641    1.00   0.00  0.02  0.00  0.98  0.00  0.00  0.00  0.06  0.00
  YS02001641YS02001644    1.00   0.00  0.00  0.00  1.00  0.00  0.00  0.00  0.00  0.00
  YS02001647YS02001649    1.00   0.00  0.04  0.00  0.96  0.00  0.00  0.00  0.01  0.00
  YS02006553YS02006556    1.00   0.00  0.00  0.00  1.00  0.00  0.00  0.00  0.03  0.00
  YS02006556YS02006558    1.00   0.00  0.00  0.00  1.00  0.00  0.00  0.00  0.00  0.00
  YSB6556YSB1171          1.00   0.01  0.02  0.00  0.97  0.00  0.00  0.00  0.00  0.00
  YS02001907YS02006553    1.00   0.00  0.01  0.00  0.99  0.00  0.00  0.00  0.00  0.00
  YS02006558YS02006561    1.00   0.04  0.00  0.00  0.21  0.75  0.00  0.00  0.43  0.00
  YS02001633YS02163601    1.00   0.00  0.00  0.00  1.00  0.00  0.00  0.00  0.15  0.00
  YS02001644YS02001647    1.00   0.00  0.04  0.00  0.96  0.00  0.00  0.00  0.00  0.00
  YS02001745YS02001748    1.00   0.00  0.00  0.00  0.94  0.00  0.00  0.06  0.01  0.00
  YS02001748YS02001751    1.00   0.00  0.00  0.00  0.98  0.02  0.00  0.00  0.14  0.00
  YS02001751YS02001754    1.00   0.00  0.00  0.00  0.96  0.00  0.00  0.04  0.01  0.00
  YS02001754YS02001757    1.00   0.00  0.00  0.00  1.00  0.00  0.00  0.00  0.17  0.00
  YS02001882YS02001884    1.00   0.03  0.00  0.00  0.97  0.00  0.00  0.00  0.00  0.00
  YS02001884YS02001887    1.00   0.01  0.01  0.00  0.97  0.00  0.00  0.00  0.00  0.00
  YS02001890YS02001895    1.00   0.00  0.03  0.00  0.97  0.00  0.00  0.00  0.00  0.00
  YS02001895YS02001898    1.00   0.03  0.00  0.00  0.96  0.00  0.01  0.00  0.00  0.00
  YS02001898YS02001901    1.00   0.03  0.00  0.00  0.97  0.00  0.00  0.00  0.01  0.00
  YS02001901YS02001904    1.00   0.03  0.00  0.00  0.96  0.00  0.00  0.00  0.00  0.00
  YS02001904YS02001907    1.00   0.00  0.03  0.00  0.96  0.00  0.00  0.00  0.00  0.00
  YS02001887YS02001890    1.00   0.00  0.00  0.00  0.99  0.00  0.01  0.00  0.00  0.00
  YS02001652YS02001649    1.00   0.00  0.00  0.00  1.00  0.00  0.00  0.00  0.15  0.00
  YS02001655YS02001652    1.00   0.00  0.00  0.00  0.96  0.00  0.00  0.04  0.01  0.00
  YS02001658YS02001655    1.00   0.00  0.03  0.00  0.95  0.02  0.00  0.00  0.02  0.00
  YS02001661YS02001658    1.00   0.03  0.00  0.00  0.94  0.03  0.00  0.00  0.01  0.00
  YS02001664YS02001661    1.00   0.03  0.00  0.00  0.94  0.03  0.00  0.00  0.10  0.00
  YSB1154YSB6556          1.00   0.03  0.00  0.00  0.97  0.00  0.00  0.00  0.01  0.00
  YSB1174YSB1171          1.00   0.01  0.01  0.00  0.98  0.00  0.00  0.00  0.00  0.00
  YSB1171HS02004479       1.00   0.01  0.00  0.00  0.99  0.00  0.00  0.00  0.10  0.00
  HS02004881HS02006253    1.00   0.01  0.00  0.00  0.90  0.01  0.00  0.08  0.73  0.00
  YS02001793JiankangQianchi    1.00   0.00  0.00  0.00  0.68  0.32  0.00  0.00  0.33  0.00
  YS02001757CaochengTiaoxuchi    1.00   0.00  0.05  0.00  0.92  0.03  0.00  0.00  0.00  0.00
  WSF200WS02003060        1.00   0.00  0.01  0.00  0.99  0.00  0.00  0.00  0.28  0.00
  1                       1.00   0.00  0.00  0.00  0.00  1.00  0.00  0.00  0.61  0.00
  
  
  *************************
  Conduit Surcharge Summary
  *************************
  
  ----------------------------------------------------------------------------
                                                           Hours        Hours 
                         --------- Hours Full --------   Above Full   Capacity
  Conduit                Both Ends  Upstream  Dnstream   Normal Flow   Limited
  ----------------------------------------------------------------------------
  WS02006229WS02006228        4.78      4.84      4.78      5.61         4.78
  WS02006256WS02006235        6.16      6.16      6.80      4.55         0.01
  WS02006253WS02006251        3.09      3.09      3.22      0.01         0.01
  WS02006252WS02006251        2.21      2.21      3.40      2.31         0.01
  WS02006251WS02006249        3.12      3.13      3.23      1.50         1.25
  WS02006249WS02006248        3.16      3.16      3.23      5.21         0.01
  WS02006248WS02006247        3.22      3.22      3.40      0.01         0.01
  WS02006247WS02006245        3.37      3.44      3.37      5.40         3.12
  WS02006245WS02006243        3.41      3.42      3.57      0.34         0.30
  WS02006243WS02006242        3.65      3.65      4.59      0.01         0.01
  WS02006242WS02006240        4.45      4.45      4.75      2.90         0.01
  WS02006240WS02006239        4.47      4.49      4.50      1.19         0.73
  WS02006239WS02006238        4.58      4.62      4.60      1.44         0.92
  WS02006238WS02006235        4.57      4.57      4.69      0.01         0.02
  WS02006235WS02006234        4.44      4.44      4.55      5.88         0.01
  WS02006234WS02006232        4.48      4.48      4.73      1.16         1.09
  WS02006232WS02006231        3.17      3.17      4.73      1.32         0.01
  WS02006231WS02006230        2.73      2.73      3.23      5.95         0.02
[...]
  YS02001779YS02001774        6.13      6.13      6.19      0.01         0.01
  YS02001649YS02001757        6.19      6.19      6.23      0.01         0.01
  YS02001767YS02001765        6.18      6.18      6.18      0.01         0.01
  YS02006561YS02001783        1.69      1.69      1.94      0.01         0.01
  YS02001783YS02001784        1.91      1.94      1.91      2.12         1.89
  YS02001784YS02001785        1.86      1.91      1.86      2.90         1.86
  YS02001788YS02001790        1.80      1.80      2.58      0.01         0.01
  YS02001790YS02001791        2.58      2.58      2.67      1.81         1.78
  YS02001791YS02001793        2.67      2.67      3.01      0.01         0.01
  YS02001910YS02001907        1.93      1.93      2.38      0.01         0.01
  YS02001786YS02001788        1.80      1.86      1.80      2.54         1.80
  YS02001915YS02001910        1.79      1.79      1.93      0.01         0.01
  YS02001918YS02001915        1.65      1.65      1.79      0.01         0.01
  YS02001923YS02001920        1.49      1.49      1.67      0.01         0.01
  YS02001926YS02001923        0.01      0.01      0.01      0.01         0.01
  YS02001929YS02001926        0.01      0.01      0.01      0.01         0.01
  YS02001920YS02001918        1.65      1.65      1.67      0.01         0.01
  YS02001629YS02163301        6.16      6.16      6.17      0.01         0.01
  YS02001619YS02001622        6.09      6.09      6.10      0.01         0.03
  YS02001622YS02001625        6.10      6.10      6.15      0.01         0.01
  YS02001625YS02001629        6.09      6.09      6.15      0.01         0.01
  YS02163301YS02001633        6.17      6.17      6.18      0.01         0.01
  YS02163601YS02164001        6.17      6.17      6.20      0.01         0.01
  YS02164001YS02001641        6.17      6.17      6.18      0.01         0.02
  YS02001641YS02001644        6.18      6.18      6.18      2.38         2.35
  YS02001647YS02001649        6.15      6.15      6.19      0.01         0.01
  YS02006553YS02006556        2.10      2.10      2.46      0.01         0.01
  YS02006556YS02006558        2.22      2.22      2.51      0.01         0.01
  YSB6556YSB1171              0.01      0.01      0.30      0.01         0.01
  YS02001907YS02006553        2.92      2.92      3.13      0.01         0.01
  YS02006558YS02006561        1.78      2.07      1.78      2.78         1.78
  YS02001633YS02163601        6.17      6.17      6.20      0.01         0.01
  YS02001644YS02001647        6.15      6.15      6.18      0.01         0.01
  YS02001745YS02001748        0.01      0.01      6.04      0.01         0.01
  YS02001748YS02001751        6.05      6.05      6.08      0.01         0.01
  YS02001751YS02001754        6.08      6.08      6.14      0.01         0.01
  YS02001754YS02001757        6.15      6.15      6.23      0.01         0.01
  YS02001882YS02001884        1.80      1.80      1.81      0.01         0.01
  YS02001884YS02001887        1.85      1.85      1.87      0.01         0.01
  YS02001890YS02001895        1.78      1.78      1.94      0.01         0.01
  YS02001895YS02001898        1.77      1.77      1.78      0.01         0.01
  YS02001898YS02001901        1.79      1.79      1.85      0.01         0.01
  YS02001901YS02001904        1.83      1.83      1.85      0.01         0.01
  YS02001904YS02001907        1.83      1.83      2.47      0.01         0.01
  YS02001887YS02001890        1.89      1.89      1.91      0.52         0.01
  YS02001652YS02001649        6.15      6.15      6.19      0.01         0.01
  YS02001655YS02001652        6.10      6.10      6.15      0.01         0.01
  YS02001658YS02001655        6.05      6.05      6.10      0.01         0.01
  YS02001661YS02001658        0.12      0.12      6.05      0.01         0.01
  YS02001664YS02001661        0.01      0.01      1.87      0.01         0.01
  HS02004881HS02006253        0.01      0.01      2.07      0.01         0.01
  YS02001793JiankangQianchi        2.92      2.92      4.34      0.01         0.01
  YS02001757CaochengTiaoxuchi        5.75      5.75      6.23      0.01         0.01
  
  
  ***************
  Pumping Summary
  ***************
  
  ---------------------------------------------------------------------------------------------------------
                                                  Min       Avg       Max     Total     Power    % Time Off
                        Percent   Number of      Flow      Flow      Flow    Volume     Usage    Pump Curve
  Pump                 Utilized   Start-Ups       LPS       LPS       LPS  10^6 ltr     Kw-hr    Low   High
  ---------------------------------------------------------------------------------------------------------
  CC-Pump-1               70.21           1      0.00    196.29    200.00     3.840      3.81    0.0    0.0
  CC-Pump-2               42.54           6      0.00     99.14    200.00     1.440      1.94    0.0    0.0
  JK-Pump-1               63.83           4      0.00    227.76    300.00     4.117     55.41    0.0    0.0
  JK-Pump-2               59.57           4      0.00    432.60    683.00     7.459     89.32    0.0   97.8
  XR-Pump-1              100.00           1      0.00     95.00     95.00     2.679     22.69    0.0    0.0
  XR-Pump-2               97.87           2      0.00     94.57     95.00     2.565     20.24    0.0    0.0
  XR-Pump-3               95.74           3      0.00     93.61     95.00     2.451     17.83    0.0    0.0
  XR-Pump-4               95.74           3      0.00     93.61     95.00     2.451     17.83    0.0    0.0
  
  
  ***************************
  Link Pollutant Load Summary
  ***************************
  
  ------------------------------------------------------------------------------------------
                                 COD            SS            TN            TP         NH4-N
  Link                            kg            kg            kg            kg            kg
  ------------------------------------------------------------------------------------------
  WS02003066WSF200          1212.741      2332.282        28.512         2.348        14.613
  WS02006287WS02006284       438.100       854.572        12.587         1.181         6.763
  WS02006284WS02006280       438.602       855.382        12.635         1.187         6.793
  WS02006280WS02006229       438.615       855.454        12.633         1.187         6.792
  WS02006229WS02006228      1203.457      2314.155        27.855         2.263        14.209
  WS02006256WS02006235       229.265       433.149         4.762         0.354         2.362
  WS02006253WS02006251        82.339       165.697         1.755         0.129         0.862
  WS02006252WS02006251       530.527      1011.575        10.203         0.697         4.914
  WS02006251WS02006249       608.752      1169.701        11.898         0.824         5.751
  WS02006249WS02006248       541.946      1038.344        10.614         0.735         5.133
  WS02006248WS02006247       540.821      1035.912        10.594         0.733         5.124
  WS02006247WS02006245       541.223      1036.736        10.601         0.734         5.127
  WS02006245WS02006243       541.913      1038.269        10.610         0.734         5.131
  WS02006243WS02006242       542.844      1040.087        10.628         0.735         5.139
  WS02006242WS02006240       542.594      1039.517        10.621         0.735         5.136
  WS02006240WS02006239       542.278      1038.720        10.616         0.734         5.133
  WS02006239WS02006238       542.114      1038.075        10.620         0.735         5.137
  WS02006238WS02006235       541.512      1036.569        10.613         0.735         5.134
  WS02006235WS02006234       767.025      1462.771        15.287         1.082         7.452
  WS02006234WS02006232       766.870      1462.510        15.284         1.082         7.450
  WS02006232WS02006231       766.632      1462.072        15.280         1.082         7.448
  WS02006231WS02006230       766.774      1462.309        15.287         1.082         7.453
  WS02006230WS02006229       767.382      1463.511        15.311         1.085         7.466
  WS02006228WS02006109      1202.557      2312.604        27.815         2.258        14.185
  WS02006116WS02004401      1222.909      2350.720        28.752         2.366        14.735
  WS02006115WS02006116      1224.133      2352.936        28.788         2.369        14.754
  WS02006113WS02006111      1209.193      2323.173        28.551         2.352        14.649
  WS02006112WS02006115      1225.287      2355.033        28.826         2.373        14.775
  WS02006111WS02006112      1208.452      2321.680        28.531         2.350        14.639
  WS02006110WS02006113      1209.409      2323.442        28.563         2.353        14.656
  WS02006109WS02006110      1210.224      2324.782        28.599         2.357        14.677
  WS02004411WS02004412      1215.539      2337.339        28.611         2.357        14.668
  WS02004401WS02004402      1221.655      2348.467        28.712         2.362        14.713
  WS02004413WS02003067      1213.199      2333.119        28.523         2.348        14.618
  WS02004412WS02004413      1214.564      2335.566        28.583         2.355        14.653
  WS02004410WS02004411      1216.245      2338.614        28.631         2.359        14.679
  WS02004409WS02004410      1216.993      2339.966        28.654         2.361        14.691
  WS02004407WS02004409      1217.527      2340.918        28.667         2.362        14.698
  WS02004406WS02004407      1217.516      2340.851        28.664         2.362        14.696
  WS02004405WS02004406      1218.934      2343.311        28.730         2.369        14.734
  WS02004404WS02004405      1219.886      2345.081        28.730         2.367        14.731
  WS02004403WS02004404      1219.442      2344.493        28.643         2.356        14.675
  WS02004402WS02004403      1220.514      2346.425        28.678         2.359        14.694
  WS02004139WS02001211      1360.413      2305.632       102.044        12.309        62.478
  WS02004138WS02004139      1366.413      2315.767       102.486        12.362        62.749
  WS02003067WS02003066      1212.875      2332.531        28.517         2.348        14.616
  WS02001213WS02003059      1394.200      2358.546       105.572        12.754        64.696
  WS02001212WS02001213      1402.932      2373.147       106.256        12.838        65.117
  WS02001211WS02001212      1404.930      2376.416       106.428        12.859        65.223
  WS02003072WS02003073      2707.724      4850.841       144.094        16.359        85.580
  WS02003069WS02003072      2712.629      4858.922       144.503        16.409        85.833
  WS02003060WS02003069      2715.216      4863.413       144.657        16.427        85.925
  WS02003059WS02003060      1391.523      2353.933       105.398        12.734        64.591
  HS02004901HS02004770        19.398        38.439         0.369         0.028         0.174
  HS02004876HS02004881        64.840       131.152         1.382         0.100         0.674
  HS02004870HS02004876        49.300        99.617         1.094         0.080         0.537
  HS02004842HS02004848         9.278        18.136         0.191         0.013         0.089
  HS02004837HS02004842        13.925        25.525         0.662         0.072         0.384
  HS02004830HS02004837        81.308       145.732         4.858         0.568         2.931
  HS02004824HS02004830        82.102       147.037         4.931         0.577         2.976
  HS02004817HS02004824       118.565       221.808         5.667         0.624         3.333
  HS02004770HS02004777        73.683       147.822         1.507         0.104         0.700
  HS02004799HS02004480       235.082       460.639         5.679         0.484         2.882
  HS02004792HS02004799       214.143       417.333         5.330         0.464         2.722
  HS02004788HS02004792       116.316       227.344         3.333         0.303         1.755
  HS02004785HS02004788        75.101       150.092         1.654         0.123         0.793
  HS02004777HS02004785        74.431       149.016         1.592         0.115         0.755
  HS02004480HS02004478       294.424       579.930         6.704         0.559         3.370
  HS02004479HS02004480        62.981       125.167         1.335         0.113         0.681
  HS02004862HS02004870        37.531        74.848         0.862         0.066         0.425
  HS02004848HS02004852        15.822        31.381         0.320         0.022         0.149
  HS02004856HS02004862        25.851        52.197         0.514         0.035         0.242
  HS02004852HS02004856        15.835        31.404         0.320         0.022         0.149
  HS02004802HS02004478       144.598       276.116         5.948         0.629         3.432
  HS02004478WS02006287       438.244       854.776        12.603         1.183         6.773
  HS02004817HS02004807       117.202       219.658         5.526         0.607         3.245
  HS02004807HS02004802       144.759       276.361         5.979         0.633         3.453
  YS02001759YS02001757       474.154       895.735         9.284         0.649         4.525
  YS02001762YS02001759       224.011       421.176         4.613         0.325         2.271
  YS02001765YS02001762       224.922       423.877         4.647         0.328         2.290
  YS02001770YS02001767       227.559       431.884         4.527         0.306         2.201
  YS02001774YS02001770       415.606       818.241         7.989         0.535         3.864
  YS02001779YS02001774       414.664       816.431         8.050         0.546         3.908
  YS02001649YS02001757       403.729       750.638         7.986         0.555         3.838
  YS02001767YS02001765       226.583       428.054         4.690         0.331         2.313
  YS02006561YS02001783      1262.829      2384.168        26.050         1.924        12.893
  YS02001783YS02001784      1262.734      2384.026        26.046         1.923        12.891
  YS02001784YS02001785      1270.082      2395.804        26.759         2.013        13.337
  YS02001788YS02001790      1270.659      2396.734        26.831         2.022        13.382
  YS02001790YS02001791      1271.587      2398.211        26.928         2.034        13.444
  YS02001791YS02001793      1271.551      2398.151        26.925         2.034        13.442
  YS02001910YS02001907       565.558      1067.972        12.766         0.943         6.445
  YS02001786YS02001788      1270.251      2396.073        26.787         2.016        13.355
  YS02001915YS02001910       565.302      1067.456        12.720         0.936         6.414
  YS02001918YS02001915       278.918       505.907         6.902         0.594         3.627
  YS02001923YS02001920       253.840       463.074         4.880         0.348         2.379
  YS02001926YS02001923       250.743       457.510         4.756         0.336         2.307
  YS02001929YS02001926       248.036       452.755         4.643         0.324         2.242
  YS02001920YS02001918       274.842       497.344         6.812         0.588         3.582
  YS02001629YS02163301        89.691       159.347         1.894         0.125         0.888
  YS02001619YS02001622       259.374       485.222         5.243         0.348         2.461
  YS02001622YS02001625       258.397       483.687         5.218         0.346         2.450
  YS02001625YS02001629        86.754       153.513         1.849         0.120         0.865
  YS02163301YS02001633        94.530       168.841         1.971         0.131         0.927
  YS02163601YS02164001       528.951       976.366        10.163         0.735         4.885
  YS02164001YS02001641       528.830       976.148        10.150         0.733         4.877
  YS02001641YS02001644       529.853       977.862        10.162         0.734         4.882
  YS02001647YS02001649       555.793      1041.497        10.954         0.768         5.226
  YS02006553YS02006556       781.868      1457.202        16.619         1.259         8.324
  YS02006556YS02006558       782.030      1457.506        16.585         1.253         8.301
  YSB6556YSB1171              36.520        72.732         0.718         0.058         0.359
  YS02001907YS02006553       781.894      1457.261        16.648         1.263         8.344
  YS02006558YS02006561      1262.820      2384.140        26.050         1.924        12.893
  YS02001633YS02163601       529.565       977.338        10.140         0.730         4.867
  YS02001644YS02001647       563.935      1056.871        11.091         0.778         5.290
  YS02001745YS02001748       354.013       679.871         6.988         0.437         3.357
  YS02001748YS02001751       353.316       678.688         6.995         0.440         3.365
  YS02001751YS02001754       352.399       677.182         6.980         0.440         3.359
  YS02001754YS02001757       353.222       678.414         7.146         0.462         3.467
  YS02001882YS02001884         4.306         7.661         0.082         0.006         0.040
  YS02001884YS02001887         7.761        14.012         0.147         0.011         0.072
  YS02001890YS02001895       614.646      1175.174        11.358         0.858         5.542
  YS02001895YS02001898       614.523      1175.044        11.352         0.858         5.539
  YS02001898YS02001901       614.269      1174.581        11.347         0.857         5.536
  YS02001901YS02001904       614.157      1174.434        11.357         0.859         5.543
  YS02001904YS02001907       614.446      1174.856        11.414         0.866         5.579
  YS02001887YS02001890       669.155      1284.187        12.354         0.936         6.031
  YS02001652YS02001649       309.170       587.757         6.129         0.444         2.881
  YS02001655YS02001652       309.637       588.537         6.142         0.445         2.887
  YS02001658YS02001655       309.109       587.727         6.055         0.433         2.831
  YS02001661YS02001658       309.617       588.591         6.067         0.434         2.836
  YS02001664YS02001661       325.514       614.108         6.441         0.459         3.008
  YSB1154YSB6556              36.099        72.065         0.671         0.053         0.330
  YSB1174YSB1171              24.947        50.012         0.489         0.039         0.242
  YSB1171HS02004479           62.902       125.018         1.341         0.114         0.684
  HS02004881HS02006253        73.382       149.003         1.528         0.109         0.742
  YS02001793JiankangQianchi      1272.132      2399.094        26.952         2.037        13.458
  YS02001757CaochengTiaoxuchi       821.971      1542.067        16.221         1.109         7.836
  WSF200WS02003060          1212.648      2332.105        28.517         2.348        14.617
  1                         2713.838      4859.860       144.895        16.462        86.090
  CC-Pump-1                  382.147       727.765         7.363         0.503         3.547
  CC-Pump-2                  148.120       283.266         2.834         0.194         1.364
  JK-Pump-1                  346.132       659.373         7.049         0.519         3.481
  JK-Pump-2                  731.370      1402.833        14.713         1.081         7.249
  XR-Pump-1                  373.761       630.458        28.688         3.473        17.602
  XR-Pump-2                  347.659       588.694        26.182         3.160        16.036
  XR-Pump-3                  324.304       551.321        23.952         2.882        14.644
  XR-Pump-4                  324.304       551.321        23.952         2.882        14.644
  

  Analysis begun on:  Tue Jul 13 22:47:00 2021
  Analysis ended on:  Tue Jul 13 22:47:03 2021
  Total elapsed time: 00:00:03