
  EPA STORM WATER MANAGEMENT MODEL - VERSION 5.1 (Build 5.3.0.dev0)
  --------------------------------------------------------------

  WARNING 04: minimum elevation drop used for Conduit WS02004404WS02004405
  WARNING 03: negative offset ignored for Link YS02001904YS02001907
  
  *********************************************************
  NOTE: The summary statistics displayed in this report are
  based on results found at every computational time step,  
  not just on results from each reporting time step.
  *********************************************************
  
  ****************
  Analysis Options
  ****************
  Flow Units ............... LPS
  Process Models:
    Rainfall/Runoff ........ YES
    RDII ................... NO
    Snowmelt ............... NO
    Groundwater ............ NO
    Flow Routing ........... YES
    Ponding Allowed ........ NO
    Water Quality .......... YES
  Infiltration Method ...... HORTON
  Flow Routing Method ...... DYNWAVE
  Surcharge Method ......... EXTRAN
  Starting Date ............ 08/28/2015 08:00:00
  Ending Date .............. 08/28/2015 15:50:00
  Antecedent Dry Days ...... 8.0
  Report Time Step ......... 00:01:00
  Wet Time Step ............ 00:01:00
  Dry Time Step ............ 00:01:00
  Routing Time Step ........ 5.00 sec
  Variable Time Step ....... YES
  Maximum Trials ........... 8
  Number of Threads ........ 4
  Head Tolerance ........... 0.001500 m
  
  
  **************************        Volume         Depth
  Runoff Quantity Continuity     hectare-m            mm
  **************************     ---------       -------
  Total Precipitation ......         7.641        16.729
  Evaporation Loss .........         0.000         0.000
  Infiltration Loss ........         1.184         2.592
  Surface Runoff ...........         5.481        12.000
  Final Storage ............         0.977         2.139
  Continuity Error (%) .....        -0.016
  
  
  **************************           COD            SS            TN            TP         NH4-N
  Runoff Quality Continuity             kg            kg            kg            kg            kg
  **************************    ----------    ----------    ----------    ----------    ----------
  Initial Buildup ..........     41378.656     70582.865      1804.177       168.684      1032.807
  Surface Buildup ..........        30.344        63.217         2.449         0.220         1.402
  Wet Deposition ...........         0.000         0.000         0.000         0.000         0.000
  Sweeping Removal .........         0.000         0.000         0.000         0.000         0.000
  Infiltration Loss ........       127.934       247.015         2.452         0.174         1.174
  BMP Removal ..............         0.000         0.000         0.000         0.000         0.000
  Surface Runoff ...........      5553.100     10632.121       107.101         7.411        51.076
  Remaining Buildup ........     35725.917     59762.998      1697.031       161.316       981.940
  Continuity Error (%) .....         0.005         0.006         0.002         0.002         0.002
  
  
  **************************        Volume        Volume
  Flow Routing Continuity        hectare-m      10^6 ltr
  **************************     ---------     ---------
  Dry Weather Inflow .......         0.616         6.165
  Wet Weather Inflow .......         5.479        54.792
  Groundwater Inflow .......         0.000         0.000
  RDII Inflow ..............         0.000         0.000
  External Inflow ..........         0.102         1.024
  External Outflow .........         2.222        22.219
  Flooding Loss ............         3.563        35.634
  Evaporation Loss .........         0.000         0.000
  Exfiltration Loss ........         0.000         0.000
  Initial Stored Volume ....         0.076         0.761
  Final Stored Volume ......         0.618         6.183
  Continuity Error (%) .....        -2.064
  
  
  **************************           COD            SS            TN            TP         NH4-N
  Quality Routing Continuity            kg            kg            kg            kg            kg
  **************************    ----------    ----------    ----------    ----------    ----------
  Dry Weather Inflow .......      1541.201      2465.922       147.955        18.494        92.472
  Wet Weather Inflow .......      5552.050     10630.282       107.078         7.409        51.066
  Groundwater Inflow .......         0.000         0.000         0.000         0.000         0.000
  RDII Inflow ..............         0.000         0.000         0.000         0.000         0.000
  External Inflow ..........       183.418       293.469        17.608         2.201        11.005
  External Outflow .........      2685.477      4801.867       145.365        16.568        86.499
  Flooding Loss ............      3897.154      7384.133        98.844         8.597        51.807
  Exfiltration Loss ........         0.000         0.000         0.000         0.000         0.000
  Mass Reacted .............         0.000         0.000         0.000         0.000         0.000
  Initial Stored Mass ......         0.000         0.000         0.000         0.000         0.000
  Final Stored Mass ........       559.019       976.890        24.627         2.618        14.238
  Continuity Error (%) .....         1.856         1.694         1.396         1.146         1.293
  
  
  *************************
  Highest Continuity Errors
  *************************
  Node HS02004842 (10.96%)
  Node JK-storage (-10.35%)
  Node YS02001884 (10.09%)
  Node HS02004817 (2.13%)
  Node YSB1171 (1.97%)
  
  
  ***************************
  Time-Step Critical Elements
  ***************************
  Link WS02006252WS02006251 (68.76%)
  Link WS02006280WS02006229 (10.88%)
  Link WS02006238WS02006235 (5.23%)
  Link YS02001793JiankangQianchi (5.08%)
  Link WS02004404WS02004405 (1.71%)
  
  
  ********************************
  Highest Flow Instability Indexes
  ********************************
  Link YS02001619YS02001622 (40)
  Link YS02163601YS02164001 (40)
  Link YS02163301YS02001633 (39)
  Link YS02001629YS02163301 (39)
  Link YS02164001YS02001641 (36)
  
  
  *************************
  Routing Time Step Summary
  *************************
  Minimum Time Step           :     0.01 sec
  Average Time Step           :     1.11 sec
  Maximum Time Step           :     5.00 sec
  Percent in Steady State     :    -0.00
  Average Iterations per Step :     4.26
  Percent Not Converging      :    18.30
  
  
  ***************************
  Subcatchment Runoff Summary
  ***************************
  
  ------------------------------------------------------------------------------------------------------------------------------
                            Total      Total      Total      Total     Imperv       Perv      Total       Total     Peak  Runoff
                           Precip      Runon       Evap      Infil     Runoff     Runoff     Runoff      Runoff   Runoff   Coeff
  Subcatchment                 mm         mm         mm         mm         mm         mm         mm    10^6 ltr      LPS
  ------------------------------------------------------------------------------------------------------------------------------
  sub0                      16.73       0.00       0.00       0.71      15.51       0.47      15.98        0.01     3.87   0.955
  sub1                      16.73       0.00       0.00       1.18      14.80       0.66      15.46        0.10    26.74   0.924
  sub2                      16.73       0.00       0.00       4.79      10.46       1.40      11.85        0.11    25.81   0.708
  sub3                      16.73       0.00       0.00       5.01      10.42       1.18      11.60        0.26    56.97   0.693
  sub4                      16.73       0.00       0.00       1.28      14.64       0.56      15.20        0.32    66.74   0.909
  sub5                      16.73       0.00       0.00       0.73      15.46       0.44      15.91        0.18    46.91   0.951
  sub7                      16.73       0.00       0.00       0.93      15.16       0.58      15.74        0.05    14.85   0.941
  sub8                      16.73       0.00       0.00       0.94      15.15       0.57      15.72        0.10    27.42   0.940
  sub9                      16.73       0.00       0.00       0.94      15.15       0.57      15.72        0.08    20.52   0.940
  sub10                     16.73       0.00       0.00       0.83      15.30       0.50      15.81        0.17    46.04   0.945
  sub11                     16.73       0.00       0.00       0.83      15.32       0.51      15.83        0.18    50.62   0.947
  sub12                     16.73       0.00       0.00       1.34      14.51       0.83      15.34        0.13    39.22   0.917
  sub14                     16.73       0.00       0.00       0.94      15.15       0.57      15.72        0.15    40.40   0.939
  sub15                     16.73       0.00       0.00       3.54      11.65       1.48      13.13        0.23    57.86   0.785
  sub16                     16.73       0.00       0.00       3.72      11.17       1.80      12.97        0.14    37.34   0.776
  sub17                     16.73       0.00       0.00       3.62      11.33       1.73      13.07        0.11    30.57   0.781
  sub22                     16.73       0.00       0.00       5.27       9.49       1.92      11.42        0.72   183.11   0.683
  sub23                     16.73       0.00       0.00       4.37      10.50       1.82      12.32        0.59   153.57   0.736
  sub60                     16.73       0.00       0.00       1.74      12.78       0.27      13.05        3.96   446.24   0.780
  sub61                     16.73       0.00       0.00       2.46      12.72       0.38      13.11        4.04   542.53   0.784
  sub62                     16.73       0.00       0.00       1.06      13.91       0.27      14.19        4.36   558.01   0.848
  sub63                     16.73       0.00       0.00       4.39      11.06       0.46      11.52        3.49   496.40   0.689
  sub64                     16.73       0.00       0.00       2.23      12.28       0.28      12.56        3.82   424.95   0.751
  sub65                     16.73       0.00       0.00       1.91      12.51       0.27      12.77        3.93   431.32   0.764
  sub66                     16.73       0.00       0.00       4.54      10.46       0.31      10.78        3.31   388.44   0.644
  sub67                     16.73       0.00       0.00       1.01      14.45       0.32      14.78        4.56   675.76   0.883
  sub68                     16.73       0.00       0.00       1.95      13.33       0.39      13.71        4.22   589.75   0.820
  sub69                     16.73       0.00       0.00       2.00      13.62       0.51      14.12        3.30   542.07   0.844
  sub70                     16.73      14.42       0.00       8.47      19.01       2.12      21.13        4.84   534.50   0.678
  sub71                     16.73       0.00       0.00       1.08      13.65       0.25      13.90        3.28   394.68   0.831
  sub72                     16.73       0.00       0.00       1.02      11.50       0.15      11.65        2.37   206.66   0.697
  1                         16.73      20.58       0.00       1.37      22.38       7.20      29.58        6.95   612.18   0.793
  2                         16.73       0.00       0.00       3.02       4.04       3.18       7.22        2.89   331.58   0.431
  
  
  ****************************
  Subcatchment Washoff Summary
  ****************************
  
  ------------------------------------------------------------------------------------------
                                 COD            SS            TN            TP         NH4-N
  Subcatchment                    kg            kg            kg            kg            kg
  ------------------------------------------------------------------------------------------
  sub0                         3.641         7.161         0.064         0.005         0.031
  sub1                        15.670        31.767         0.296         0.021         0.143
  sub2                        10.304        20.454         0.214         0.015         0.099
  sub3                        25.293        49.815         0.517         0.036         0.240
  sub4                        36.168        74.260         0.714         0.044         0.344
  sub5                        35.763        71.366         0.649         0.050         0.316
  sub7                         7.894        16.212         0.150         0.010         0.073
  sub8                        11.755        24.726         0.234         0.014         0.113
  sub9                        10.113        20.966         0.196         0.013         0.095
  sub10                       29.347        59.341         0.545         0.040         0.265
  sub11                       28.395        58.052         0.536         0.037         0.260
  sub12                       24.463        49.072         0.450         0.034         0.218
  sub14                       21.697        44.543         0.414         0.028         0.200
  sub15                       29.696        58.821         0.572         0.042         0.270
  sub16                       19.246        38.050         0.367         0.028         0.174
  sub17                       17.687        34.653         0.330         0.026         0.156
  sub22                       95.915       186.896         1.820         0.139         0.857
  sub23                       54.382       109.539         1.141         0.076         0.527
  sub60                      353.947       679.509         6.988         0.437         3.357
  sub61                      439.695       840.113         8.188         0.570         3.952
  sub62                      449.790       873.119         8.744         0.564         4.209
  sub63                      328.186       618.356         6.505         0.463         3.037
  sub64                      450.924       835.563         8.299         0.611         3.976
  sub65                      460.537       856.688         8.527         0.617         4.090
  sub66                      259.427       485.147         5.248         0.348         2.463
  sub67                      667.181      1281.068        12.075         0.900         5.853
  sub68                      479.473       924.467         9.153         0.628         4.389
  sub69                      429.286       835.450         8.068         0.576         3.873
  sub70                      758.301      1478.311        15.194         1.074         7.173
  sub71                      296.268       580.620         6.027         0.356         2.890
  sub72                      247.759       452.374         4.612         0.320         2.223
  1                          576.917      1130.968        11.723         0.829         5.484
  2                           65.566       118.435         1.802         0.109         0.773
  ------------------------------------------------------------------------------------------
  System                    6740.687     12945.882       130.363         9.060        62.122
  
  
  ******************
  Node Depth Summary
  ******************
  
  ---------------------------------------------------------------------------------
                                 Average  Maximum  Maximum  Time of Max    Reported
                                   Depth    Depth      HGL   Occurrence   Max Depth
  Node                 Type       Meters   Meters   Meters  days hr:min      Meters
  ---------------------------------------------------------------------------------
  WS02001211           JUNCTION     0.78     0.85     5.69     0  02:01        0.85
  WS02001212           JUNCTION     0.50     0.58     5.64     0  02:01        0.58
  WS02001213           JUNCTION     0.74     0.86     5.62     0  02:01        0.86
  WS02003069           JUNCTION     0.55     0.72     5.31     0  02:01        0.72
  WS02003072           JUNCTION     0.61     0.77     5.14     0  02:00        0.77
  WS02003073           JUNCTION     0.37     0.48     4.55     0  02:01        0.48
  WS02003060           JUNCTION     0.48     0.64     5.57     0  02:00        0.64
  WS02003066           JUNCTION     0.27     0.39     5.94     0  01:55        0.39
  WS02003059           JUNCTION     0.79     0.91     5.60     0  02:00        0.91
  WS02003067           JUNCTION     0.64     0.83     6.15     0  01:53        0.83
  WS02004401           JUNCTION     0.78     1.31     7.31     0  01:51        1.29
  WS02004402           JUNCTION     0.81     1.29     7.25     0  01:51        1.27
  WS02004403           JUNCTION     0.83     1.27     7.20     0  01:51        1.24
  WS02004404           JUNCTION     0.90     1.31     7.16     0  01:51        1.27
  WS02004406           JUNCTION     0.89     1.20     7.03     0  01:51        1.18
  WS02004409           JUNCTION     0.59     0.98     6.75     0  01:54        0.98
  WS02004410           JUNCTION     0.61     0.96     6.68     0  01:54        0.96
  WS02004411           JUNCTION     0.62     0.94     6.62     0  01:54        0.94
  WS02004412           JUNCTION     0.63     0.92     6.56     0  01:54        0.91
  WS02004413           JUNCTION     0.79     1.03     6.50     0  01:54        1.03
  WS02004405           JUNCTION     0.89     1.28     7.13     0  01:51        1.24
  WS02006109           JUNCTION     0.89     1.83     8.45     0  01:51        1.74
  WS02006110           JUNCTION     0.85     1.86     8.45     0  01:51        1.53
  WS02006111           JUNCTION     0.29     1.10     7.80     0  01:51        0.97
  WS02006112           JUNCTION     0.97     1.67     7.55     0  01:51        1.64
  WS02006113           JUNCTION     0.41     1.52     8.42     0  01:51        1.02
  WS02006115           JUNCTION     0.69     1.32     7.46     0  01:51        1.30
  WS02006116           JUNCTION     0.76     1.35     7.39     0  01:51        1.33
  WS02006230           JUNCTION     0.93     1.97     8.72     0  01:52        1.95
  WS02006231           JUNCTION     0.67     1.61     8.73     0  01:52        1.58
  WS02006232           JUNCTION     0.82     1.70     8.74     0  01:52        1.68
  WS02006234           JUNCTION     0.77     1.59     8.75     0  01:52        1.57
  WS02006235           JUNCTION     0.81     1.60     8.76     0  01:52        1.57
  WS02006238           JUNCTION     0.84     1.61     8.76     0  01:52        1.59
  WS02006240           JUNCTION     0.75     1.44     8.74     0  01:52        1.43
  WS02006242           JUNCTION     0.81     1.46     8.73     0  01:52        1.44
  WS02006243           JUNCTION     0.69     1.30     8.72     0  01:52        1.28
  WS02006245           JUNCTION     0.67     1.22     8.71     0  01:52        1.21
  WS02006247           JUNCTION     0.68     1.20     8.70     0  01:52        1.20
  WS02006248           JUNCTION     0.62     1.10     8.69     0  01:51        1.10
  WS02006249           JUNCTION     0.63     1.09     8.69     0  01:50        1.09
  WS02006239           JUNCTION     0.80     1.54     8.75     0  01:52        1.52
  WS02006251           JUNCTION     0.61     1.41     9.08     0  06:32        1.18
  WS02006252           JUNCTION     0.38     0.97     9.21     0  06:32        0.71
  WS02006253           JUNCTION     0.63     1.44     9.08     0  02:57        1.22
  WS02006256           JUNCTION     1.83     2.35     9.28     0  00:00        2.35
  WS02004138           JUNCTION     0.19     0.20     7.45     0  00:00        0.19
  WS02004139           JUNCTION     0.73     0.79     5.70     0  02:01        0.79
  WS02004407           JUNCTION     0.26     0.40     6.72     0  01:52        0.40
  WS02006228           JUNCTION     0.91     1.93     8.58     0  01:52        1.92
  WS02006229           JUNCTION     0.90     2.01     8.70     0  01:52        1.99
  WS02006280           JUNCTION     0.07     0.32     8.60     0  01:51        0.30
  WS02006284           JUNCTION     0.37     0.66     9.06     0  01:54        0.66
  WS02006287           JUNCTION     0.10     0.40     9.36     0  01:54        0.40
  WSF200               JUNCTION     0.27     0.44     5.68     0  01:54        0.44
  HS02004901           JUNCTION     0.13     0.38    10.21     0  01:53        0.38
  HS02004881           JUNCTION     0.01     0.05     9.08     0  01:54        0.05
  HS02004876           JUNCTION     0.05     0.17     9.20     0  01:54        0.17
  HS02004870           JUNCTION     0.02     0.10     9.38     0  01:54        0.10
  HS02004862           JUNCTION     0.02     0.11     9.50     0  01:55        0.11
  HS02004856           JUNCTION     0.08     0.15     9.58     0  01:54        0.15
  HS02004852           JUNCTION     0.01     0.08     9.59     0  01:55        0.08
  HS02004848           JUNCTION     0.01     0.07     9.67     0  01:54        0.07
  HS02004842           JUNCTION     0.34     0.40     9.67     0  01:54        0.40
  HS02004837           JUNCTION     0.03     0.09     9.67     0  01:54        0.09
  HS02004830           JUNCTION     0.04     0.11     9.58     0  01:55        0.11
  HS02004824           JUNCTION     0.03     0.15     9.55     0  01:54        0.15
  HS02004817           JUNCTION     0.45     0.71     9.56     0  01:54        0.71
  HS02004807           JUNCTION     0.13     0.38     9.55     0  01:55        0.38
  HS02004802           JUNCTION     0.17     0.41     9.54     0  01:55        0.41
  HS02004799           JUNCTION     0.13     0.48     9.69     0  01:53        0.48
  HS02004792           JUNCTION     0.04     0.22     9.75     0  01:53        0.22
  HS02004788           JUNCTION     0.03     0.16    10.06     0  01:54        0.16
  HS02004785           JUNCTION     0.05     0.25    10.15     0  01:53        0.25
  HS02004777           JUNCTION     0.15     0.40    10.20     0  01:53        0.40
  HS02004770           JUNCTION     0.12     0.37    10.21     0  01:53        0.37
  HS02004480           JUNCTION     0.09     0.39     9.64     0  01:53        0.39
  HS02004479           JUNCTION     0.12     0.43     9.64     0  01:53        0.43
  HS02004478           JUNCTION     0.07     0.29     9.52     0  01:54        0.29
  YS02001745           JUNCTION     0.76     0.95     8.47     0  02:55        0.95
  YS02001748           JUNCTION     1.17     1.61     8.68     0  01:47        1.39
  YS02001751           JUNCTION     1.36     1.71     8.59     0  01:47        1.58
  YS02001754           JUNCTION     1.61     1.85     8.46     0  01:47        1.84
  YS02001762           JUNCTION     1.81     2.07     8.47     0  04:52        2.04
  YS02001765           JUNCTION     1.76     2.02     8.47     0  04:52        1.98
  YS02001767           JUNCTION     1.73     1.97     8.46     0  04:52        1.94
  YS02001770           JUNCTION     1.72     1.94     8.43     0  04:52        1.93
  YS02001774           JUNCTION     1.79     1.99     8.41     0  01:47        1.98
  YS02001779           JUNCTION     1.53     1.68     8.37     0  01:47        1.68
  YS02001882           JUNCTION     0.65     1.64     8.35     0  01:52        1.63
  YS02001884           JUNCTION     0.74     1.74     8.35     0  02:14        1.73
  YS02001759           JUNCTION     1.85     2.09     8.46     0  04:52        2.08
  YS02001887           JUNCTION     0.82     1.81     8.35     0  02:07        1.81
  YS02001890           JUNCTION     0.85     1.81     8.32     0  01:52        1.81
  YS02001898           JUNCTION     0.61     1.57     8.30     0  01:52        1.56
  YS02001901           JUNCTION     0.73     1.68     8.29     0  02:12        1.67
  YS02001904           JUNCTION     0.71     1.64     8.27     0  01:52        1.63
  YS02001907           JUNCTION     1.04     1.96     8.25     0  01:52        1.96
  YS02001910           JUNCTION     0.83     1.82     8.33     0  01:53        1.79
  YS02001915           JUNCTION     0.63     1.67     8.39     0  01:53        1.63
  YS02001918           JUNCTION     0.37     1.42     8.49     0  01:53        1.34
  YS02001619           JUNCTION     1.31     1.55     8.48     0  01:45        1.48
  YS02001629           JUNCTION     1.67     1.85     8.40     0  01:46        1.84
  YS02001641           JUNCTION     1.77     1.94     8.37     0  01:47        1.93
  YS02001644           JUNCTION     1.77     1.92     8.35     0  01:47        1.92
  YS02001652           JUNCTION     1.62     2.08     8.67     0  04:06        1.86
  YS02001655           JUNCTION     1.38     2.06     8.91     0  04:06        1.64
  YS02001920           JUNCTION     0.48     1.53     8.53     0  01:53        1.42
  YS02001923           JUNCTION     0.31     1.31     8.57     0  01:53        1.21
  YS02001926           JUNCTION     0.35     1.15     8.59     0  01:53        1.04
  YS02001929           JUNCTION     0.21     0.92     8.62     0  01:53        0.82
  YS02001658           JUNCTION     1.11     2.00     9.14     0  04:06        1.39
  YS02001661           JUNCTION     0.87     1.96     9.37     0  04:06        1.17
  YS02001664           JUNCTION     0.38     0.57     8.50     0  04:10        0.56
  YS02001622           JUNCTION     1.33     1.55     8.46     0  01:45        1.50
  YS02001633           JUNCTION     1.76     1.96     8.42     0  01:47        1.94
  YS02001649           JUNCTION     1.82     2.05     8.44     0  03:53        2.05
  YS02001757           JUNCTION     1.94     2.18     8.45     0  02:55        2.18
  YS02001895           JUNCTION     0.61     1.57     8.31     0  01:56        1.56
  YS02001625           JUNCTION     1.62     1.78     8.38     0  01:45        1.78
  YS02163301           JUNCTION     1.70     1.89     8.41     0  01:47        1.88
  YS02163601           JUNCTION     1.81     2.01     8.41     0  01:47        1.98
  YS02164001           JUNCTION     1.75     1.93     8.39     0  01:47        1.91
  YS02001647           JUNCTION     1.60     1.80     8.41     0  04:07        1.78
  YSB1154              JUNCTION     0.27     0.58     9.64     0  01:53        0.58
  YSB6556              JUNCTION     0.16     0.47     9.64     0  01:53        0.47
  YSB1174              JUNCTION     0.22     0.53     9.64     0  01:53        0.53
  YSB1171              JUNCTION     0.42     0.74     9.64     0  01:53        0.74
  YS02006553           JUNCTION     1.04     1.97     8.25     0  02:08        1.96
  YS02006561           JUNCTION     0.38     1.08     7.74     0  02:13        1.07
  YS02006556           JUNCTION     1.01     1.93     8.24     0  02:13        1.93
  YS02006558           JUNCTION     1.05     1.98     8.25     0  02:14        1.97
  YS02001783           JUNCTION     0.60     1.47     7.61     0  02:15        1.46
  YS02001784           JUNCTION     0.61     1.41     7.48     0  02:14        1.40
  YS02001786           JUNCTION     0.54     1.24     7.27     0  02:14        1.24
  YS02001788           JUNCTION     0.46     1.11     7.08     0  02:12        1.10
  YS02001790           JUNCTION     0.57     1.96     7.60     0  04:42        1.25
  YS02001791           JUNCTION     0.52     2.72     8.19     0  04:41        1.24
  YS02001793           JUNCTION     0.71     2.93     7.77     0  04:39        1.78
  WSC                  OUTFALL      0.37     0.48     1.15     0  02:02        0.48
  JK-storage           STORAGE      2.80     5.80     6.60     0  04:43        5.80
  CC-storage           STORAGE      1.20     1.44     8.44     0  02:53        1.44
  XR-storage           STORAGE      7.08     7.72     5.72     0  02:10        7.72
  
  
  *******************
  Node Inflow Summary
  *******************
  
  -------------------------------------------------------------------------------------------------
                                  Maximum  Maximum                  Lateral       Total        Flow
                                  Lateral    Total  Time of Max      Inflow      Inflow     Balance
                                   Inflow   Inflow   Occurrence      Volume      Volume       Error
  Node                 Type           LPS      LPS  days hr:min    10^6 ltr    10^6 ltr     Percent
  -------------------------------------------------------------------------------------------------
  WS02001211           JUNCTION      7.35   389.61     0  04:38       0.207        10.4       0.390
  WS02001212           JUNCTION      0.00   391.77     0  04:38           0        10.4       0.240
  WS02001213           JUNCTION      0.00   393.83     0  04:37           0        10.4       0.275
  WS02003069           JUNCTION      0.32  1346.98     0  02:00     0.00902        22.3       0.161
  WS02003072           JUNCTION      0.00  1347.00     0  02:01           0        22.3       0.192
  WS02003073           JUNCTION      1.82  1348.93     0  02:01      0.0514        22.3       0.224
  WS02003060           JUNCTION     16.53  1346.75     0  02:00       0.466        22.3       0.150
  WS02003066           JUNCTION      0.00   956.84     0  01:55           0        11.6       0.040
  WS02003059           JUNCTION      0.00   396.93     0  04:37           0        10.3       0.392
  WS02003067           JUNCTION      0.00   956.62     0  01:54           0        11.6       0.083
  WS02004401           JUNCTION      0.00   968.35     0  01:52           0        11.8       0.172
  WS02004402           JUNCTION      0.00   968.41     0  01:52           0        11.8       0.163
  WS02004403           JUNCTION      0.00   969.25     0  01:52           0        11.8       0.149
  WS02004404           JUNCTION      0.16   969.51     0  01:52     0.00457        11.8       0.114
  WS02004406           JUNCTION      0.00   970.76     0  01:52           0        11.7       0.275
  WS02004409           JUNCTION      0.00   968.40     0  01:52           0        11.7       0.142
  WS02004410           JUNCTION      0.00   956.61     0  01:53           0        11.7       0.161
  WS02004411           JUNCTION      0.00   954.55     0  01:54           0        11.7       0.166
  WS02004412           JUNCTION      0.00   956.10     0  01:54           0        11.6       0.179
  WS02004413           JUNCTION      0.00   956.42     0  01:54           0        11.6       0.266
  WS02004405           JUNCTION      0.04   970.95     0  01:52     0.00107        11.7       0.168
  WS02006109           JUNCTION      1.23   935.90     0  01:53      0.0347        11.8       0.150
  WS02006110           JUNCTION      0.00   936.04     0  01:53           0        11.8       0.146
  WS02006111           JUNCTION      0.00   936.14     0  01:53           0        11.8       0.027
  WS02006112           JUNCTION     30.57   966.74     0  01:52       0.112        11.9       0.246
  WS02006113           JUNCTION      0.00   935.67     0  01:53           0        11.8       0.079
  WS02006115           JUNCTION      0.00   966.83     0  01:52           0        11.8       0.162
  WS02006116           JUNCTION      0.00   968.33     0  01:52           0        11.8       0.139
  WS02006230           JUNCTION     10.28   536.34     0  06:32        0.29        8.72       0.150
  WS02006231           JUNCTION      0.00   527.27     0  06:32           0        8.43       0.084
  WS02006232           JUNCTION      0.00   528.18     0  06:32           0        8.44       0.179
  WS02006234           JUNCTION      0.00   528.33     0  06:32           0        8.45       0.067
  WS02006235           JUNCTION      0.00   528.00     0  06:32           0        8.53       0.109
  WS02006238           JUNCTION      0.00   415.24     0  07:30           0        5.04       0.006
  WS02006240           JUNCTION      0.00   413.92     0  07:30           0           5       0.201
  WS02006242           JUNCTION      0.00   413.95     0  07:30           0        4.98       0.287
  WS02006243           JUNCTION      0.00   414.04     0  07:30           0        4.96       0.138
  WS02006245           JUNCTION      0.00   414.57     0  07:30           0        4.96       0.223
  WS02006247           JUNCTION      0.00   414.52     0  07:30           0        4.95       0.145
  WS02006248           JUNCTION      0.00   414.64     0  07:30           0        4.98       0.070
  WS02006249           JUNCTION      0.00   456.15     0  06:32           0        5.47       0.182
  WS02006239           JUNCTION      0.00   414.97     0  07:30           0        5.02       0.085
  WS02006251           JUNCTION      0.08   451.79     0  03:00     0.00217        5.53       0.130
  WS02006252           JUNCTION      0.00   400.00     0  04:10           0        4.86       0.004
  WS02006253           JUNCTION      3.87   156.77     0  01:54      0.0129       0.664       0.381
  WS02006256           JUNCTION      0.00   983.00     0  01:50           0        12.5      -0.004
  WS02004138           JUNCTION      0.00   380.00     0  00:00           0        10.3       0.061
  WS02004139           JUNCTION      0.32   395.85     0  00:00     0.00905        10.3       0.447
  WS02004407           JUNCTION      0.00   971.27     0  01:52           0        11.7       0.061
  WS02006228           JUNCTION      0.00   934.66     0  01:52           0        11.8       0.114
  WS02006229           JUNCTION      0.00   984.08     0  01:51           0        11.8       0.120
  WS02006280           JUNCTION      0.00   736.11     0  01:54           0        3.11       0.013
  WS02006284           JUNCTION      0.10   735.84     0  01:54      0.0027        3.11       0.019
  WS02006287           JUNCTION      0.00   735.63     0  01:54           0        3.11       0.024
  WSF200               JUNCTION      0.00   956.99     0  01:55           0        11.6       0.038
  HS02004901           JUNCTION     37.34    37.34     0  01:51       0.136       0.136       1.311
  HS02004881           JUNCTION     14.85   153.29     0  01:54       0.053       0.601       0.102
  HS02004876           JUNCTION     26.74   139.06     0  01:54       0.103       0.549       0.099
  HS02004870           JUNCTION     27.42   112.65     0  01:54         0.1       0.446       0.025
  HS02004862           JUNCTION     26.01    86.18     0  01:54       0.116       0.346       0.050
  HS02004856           JUNCTION     20.52    60.23     0  01:54      0.0756       0.231       0.629
  HS02004852           JUNCTION      0.00    40.37     0  01:54           0       0.155       0.036
  HS02004848           JUNCTION     56.97    56.97     0  01:56       0.261       0.261       0.019
  HS02004842           JUNCTION      0.00    18.18     0  02:06           0       0.119      12.306
  HS02004837           JUNCTION     52.39    67.87     0  01:54       0.353       0.459       0.177
  HS02004830           JUNCTION      0.15    67.98     0  01:54     0.00423       0.449       0.275
  HS02004824           JUNCTION     66.79   134.68     0  01:56       0.318       0.767       0.071
  HS02004817           JUNCTION      0.60   136.80     0  01:57      0.0169       0.783       2.175
  HS02004807           JUNCTION     50.62   183.90     0  01:55       0.184       0.952       0.460
  HS02004802           JUNCTION      0.00   183.88     0  01:56           0        0.95       0.417
  HS02004799           JUNCTION     40.40   470.76     0  01:53        0.15        1.87       0.160
  HS02004792           JUNCTION    183.39   430.98     0  01:53       0.729        1.72       0.024
  HS02004788           JUNCTION     59.53   248.80     0  01:53       0.273       0.991       0.039
  HS02004785           JUNCTION      0.15   189.56     0  01:53     0.00423        0.72       0.070
  HS02004777           JUNCTION      0.03   189.72     0  01:52    0.000846        0.72       0.728
  HS02004770           JUNCTION    153.57   190.38     0  01:52       0.587       0.722       0.429
  HS02004480           JUNCTION      0.00   554.34     0  01:53           0        2.18       0.043
  HS02004479           JUNCTION      0.00    83.76     0  01:53           0       0.323       0.229
  HS02004478           JUNCTION      0.00   735.58     0  01:54           0        3.11       0.010
  YS02001745           JUNCTION    446.25   446.25     0  02:16        3.95        3.95       0.242
  YS02001748           JUNCTION      0.04   452.79     0  02:16     0.00127        3.95       0.579
  YS02001751           JUNCTION      0.01   452.27     0  02:16     0.00031        3.92       0.608
  YS02001754           JUNCTION      0.26   453.02     0  02:16     0.00733        3.91       0.630
  YS02001762           JUNCTION      0.00   434.75     0  01:55           0        2.46       0.867
  YS02001765           JUNCTION      0.00   434.62     0  01:55           0        2.46       0.988
  YS02001767           JUNCTION      0.54   434.78     0  01:55      0.0151        2.48       1.449
  YS02001770           JUNCTION    558.16   710.67     0  02:56        4.36        5.31       0.585
  YS02001774           JUNCTION      0.00   710.75     0  02:56           0        3.76       0.658
  YS02001779           JUNCTION      0.01   710.71     0  02:56    0.000141        3.73       0.418
  YS02001882           JUNCTION      0.00    27.30     0  01:49           0       0.024       9.648
  YS02001884           JUNCTION      0.00    45.57     0  01:48           0      0.0607      11.225
  YS02001759           JUNCTION    542.57   878.30     0  01:57        4.04        5.52       0.412
  YS02001887           JUNCTION    676.21   677.26     0  02:13        4.57         4.6       0.184
  YS02001890           JUNCTION      0.00   677.45     0  02:14           0        4.56       0.203
  YS02001898           JUNCTION      0.00   539.35     0  01:52           0        4.27       0.067
  YS02001901           JUNCTION      0.00   538.38     0  01:51           0        4.27       0.162
  YS02001904           JUNCTION      0.00   540.07     0  01:51           0        4.27       0.141
  YS02001907           JUNCTION      0.00  1180.30     0  01:54           0        9.98       0.247
  YS02001910           JUNCTION      0.00   659.58     0  01:54           0        5.73       0.212
  YS02001915           JUNCTION    394.70   658.95     0  01:54        3.28        5.77       0.099
  YS02001918           JUNCTION      0.00   361.75     0  01:54           0        2.52       0.058
  YS02001619           JUNCTION    388.44   388.44     0  02:16         3.3         3.3       0.370
  YS02001629           JUNCTION      0.00   219.50     0  01:48           0        1.43       2.043
  YS02001641           JUNCTION      0.00   455.44     0  01:48           0         5.1       0.407
  YS02001644           JUNCTION    424.99  1550.75     0  02:55        3.82        13.8       0.192
  YS02001652           JUNCTION      0.00   515.97     0  02:08           0        3.45       0.662
  YS02001655           JUNCTION      0.15   515.01     0  02:08     0.00434        3.47       0.732
  YS02001920           JUNCTION      2.87   360.70     0  01:54      0.0809         2.5       0.114
  YS02001923           JUNCTION      0.04   298.15     0  01:54     0.00106         2.4       0.043
  YS02001926           JUNCTION      0.05   239.88     0  01:54     0.00147        2.38       0.128
  YS02001929           JUNCTION    206.66   206.66     0  03:01        2.37        2.37       0.023
  YS02001658           JUNCTION      0.00   522.66     0  02:02           0        3.49       0.681
  YS02001661           JUNCTION      0.00   746.93     0  01:59           0        3.92      -0.277
  YS02001664           JUNCTION    496.40   496.40     0  02:16        3.49        3.93       0.124
  YS02001622           JUNCTION      0.00   388.98     0  02:16           0        3.29       0.968
  YS02001633           JUNCTION    431.52   456.73     0  01:48        3.93        5.24       0.612
  YS02001649           JUNCTION      0.00  1001.61     0  01:49           0        7.24       0.514
  YS02001757           JUNCTION      0.00  2148.83     0  01:55           0        10.7       0.857
  YS02001895           JUNCTION      0.00   538.86     0  01:52           0        4.28       0.120
  YS02001625           JUNCTION      0.00   434.64     0  02:16           0        3.34       1.186
  YS02163301           JUNCTION      0.00   221.85     0  01:45           0        1.42       1.699
  YS02163601           JUNCTION      0.11   456.07     0  01:48      0.0031        5.11       0.588
  YS02164001           JUNCTION      0.00   456.44     0  01:48           0        5.09       0.393
  YS02001647           JUNCTION      0.00   791.59     0  02:55           0        6.35       0.445
  YSB1154              JUNCTION     46.91    46.91     0  01:52        0.18       0.181       0.806
  YSB6556              JUNCTION      0.00    46.64     0  01:52           0       0.182       0.696
  YSB1174              JUNCTION     39.22    39.22     0  01:50       0.134       0.134       0.962
  YSB1171              JUNCTION      0.00    84.02     0  01:52           0       0.322       2.011
  YS02006553           JUNCTION      0.00   717.55     0  03:35           0        7.35       0.210
  YS02006561           JUNCTION      0.00  1083.67     0  01:52           0        11.5       0.007
  YS02006556           JUNCTION      0.00   717.71     0  03:35           0        7.36       0.154
  YS02006558           JUNCTION    590.63  1084.40     0  01:52        4.24        11.6       0.043
  YS02001783           JUNCTION      0.00  1063.77     0  01:52           0        11.5       0.021
  YS02001784           JUNCTION      1.06  1065.88     0  01:52      0.0299        11.6       0.032
  YS02001786           JUNCTION      0.06  1065.98     0  01:52     0.00159        11.6       0.030
  YS02001788           JUNCTION      0.07  1066.63     0  01:52       0.002        11.6       0.017
  YS02001790           JUNCTION      0.15  1060.39     0  01:52     0.00437        11.6       0.019
  YS02001791           JUNCTION      0.00  1059.85     0  01:52           0        11.6       0.011
  YS02001793           JUNCTION      0.00  1059.94     0  01:53           0        11.6      -0.028
  WSC                  OUTFALL       0.00  1349.55     0  02:02           0        22.2       0.000
  JK-storage           STORAGE       0.00  1059.56     0  01:52           0        11.7      -9.376
  CC-storage           STORAGE       0.00  2149.91     0  01:55           0        8.19       0.736
  XR-storage           STORAGE    1054.62  1054.62     0  03:01        15.5        16.1      -0.006
  
  
  **********************
  Node Surcharge Summary
  **********************
  
  Surcharging occurs when water rises above the top of the highest conduit.
  ---------------------------------------------------------------------
                                               Max. Height   Min. Depth
                                   Hours       Above Crown    Below Rim
  Node                 Type      Surcharged         Meters       Meters
  ---------------------------------------------------------------------
  WS02004401           JUNCTION        1.21          0.307        1.353
  WS02004402           JUNCTION        1.26          0.289        1.451
  WS02004403           JUNCTION        1.28          0.265        1.765
  WS02004404           JUNCTION        1.54          0.308        2.472
  WS02004406           JUNCTION        1.48          0.203        2.247
  WS02004413           JUNCTION        0.48          0.031        2.169
  WS02004405           JUNCTION        1.51          0.277        2.523
  WS02006109           JUNCTION        4.71          1.010        0.810
  WS02006110           JUNCTION        2.85          0.952        0.898
  WS02006111           JUNCTION        0.36          0.285        1.585
  WS02006112           JUNCTION        3.25          0.671        1.009
  WS02006113           JUNCTION        0.40          0.724        1.206
  WS02006115           JUNCTION        0.78          0.312        1.938
  WS02006116           JUNCTION        0.84          0.291        1.999
  WS02006230           JUNCTION        2.53          0.894        0.676
  WS02006231           JUNCTION        3.15          0.895        0.635
  WS02006232           JUNCTION        4.71          1.005        0.475
  WS02006234           JUNCTION        4.28          0.870        0.370
  WS02006235           JUNCTION        4.45          0.888        0.402
  WS02006238           JUNCTION        4.52          0.893        0.537
  WS02006240           JUNCTION        4.16          0.733        0.657
  WS02006242           JUNCTION        4.38          0.727        0.093
  WS02006243           JUNCTION        3.57          0.592        0.178
  WS02006245           JUNCTION        3.36          0.512        0.338
  WS02006247           JUNCTION        3.40          0.495        0.265
  WS02006248           JUNCTION        2.86          0.380        0.000
  WS02006249           JUNCTION        2.99          0.390        0.000
  WS02006239           JUNCTION        4.30          0.796        0.494
  WS02006251           JUNCTION        1.78          0.379        0.801
  WS02006252           JUNCTION        3.23          0.571        0.529
  WS02006253           JUNCTION        1.99          0.400        2.080
  WS02006256           JUNCTION        6.97          2.050        0.000
  WS02006228           JUNCTION        4.67          1.099        1.101
  HS02004817           JUNCTION        0.15          0.010        1.730
  YS02001748           JUNCTION        6.04          0.527        0.663
  YS02001751           JUNCTION        6.08          0.712        0.488
  YS02001754           JUNCTION        6.14          0.803        0.347
  YS02001762           JUNCTION        6.19          1.068        0.082
  YS02001765           JUNCTION        6.18          1.019        0.081
  YS02001767           JUNCTION        6.18          0.971        0.059
  YS02001770           JUNCTION        6.18          0.909        0.011
  YS02001774           JUNCTION        6.19          0.992        0.058
  YS02001779           JUNCTION        6.13          0.680        0.000
  YS02001882           JUNCTION        1.79          0.638        0.192
  YS02001884           JUNCTION        1.81          0.678        0.192
  YS02001759           JUNCTION        6.20          1.092        0.118
  YS02001887           JUNCTION        1.87          0.764        0.186
  YS02001890           JUNCTION        1.89          0.760        0.000
  YS02001898           JUNCTION        1.76          0.535        0.205
  YS02001901           JUNCTION        1.84          0.677        0.193
  YS02001904           JUNCTION        1.82          0.640        0.210
  YS02001907           JUNCTION        2.37          0.950        0.000
  YS02001910           JUNCTION        1.92          0.819        0.281
  YS02001915           JUNCTION        1.78          0.672        0.328
  YS02001918           JUNCTION        1.63          0.423        0.387
  YS02001619           JUNCTION        6.09          0.551        0.059
  YS02001629           JUNCTION        6.08          0.470        0.000
  YS02001641           JUNCTION        6.18          0.937        0.163
  YS02001644           JUNCTION        6.18          0.920        0.000
  YS02001652           JUNCTION        6.15          1.046        0.084
  YS02001655           JUNCTION        6.10          1.056        0.144
  YS02001920           JUNCTION        1.65          0.526        0.614
  YS02001923           JUNCTION        0.01          0.096        0.724
  YS02001926           JUNCTION        0.01          0.146        0.754
  YS02001658           JUNCTION        6.05          1.000        0.300
  YS02001661           JUNCTION        0.15          0.894        0.496
  YS02001622           JUNCTION        6.10          0.552        0.068
  YS02001633           JUNCTION        6.17          0.942        0.118
  YS02001649           JUNCTION        6.19          1.050        0.000
  YS02001757           JUNCTION        6.23          1.185        0.025
  YS02001895           JUNCTION        1.77          0.567        0.183
  YS02001625           JUNCTION        6.15          0.780        0.000
  YS02163301           JUNCTION        6.17          0.894        0.136
  YS02163601           JUNCTION        6.20          1.008        0.072
  YS02164001           JUNCTION        6.17          0.932        0.168
  YS02001647           JUNCTION        6.15          0.804        0.096
  YS02006553           JUNCTION        2.44          0.971        0.219
  YS02006561           JUNCTION        1.65          0.281        0.869
  YS02006556           JUNCTION        2.10          0.894        0.456
  YS02006558           JUNCTION        2.07          0.881        0.519
  YS02001783           JUNCTION        1.89          0.668        0.932
  YS02001784           JUNCTION        1.86          0.607        0.883
  YS02001786           JUNCTION        1.78          0.444        0.986
  YS02001788           JUNCTION        1.68          0.306        1.174
  YS02001790           JUNCTION        2.44          1.157        0.000
  YS02001791           JUNCTION        2.53          1.920        0.000
  YS02001793           JUNCTION        2.82          1.934        0.666
  
  
  *********************
  Node Flooding Summary
  *********************
  
  Flooding refers to all water that overflows a node, whether it ponds or not.
  --------------------------------------------------------------------------
                                                             Total   Maximum
                                 Maximum   Time of Max       Flood    Ponded
                        Hours       Rate    Occurrence      Volume     Depth
  Node                 Flooded       LPS   days hr:min    10^6 ltr    Meters
  --------------------------------------------------------------------------
  WS02006248              0.23     60.82      0  01:53       0.024     0.000
  WS02006249              1.87    187.80      0  02:40       0.483     0.000
  WS02006256              4.68    838.49      0  01:52       8.901     0.000
  YS02001779              3.44    710.71      0  02:56       3.714     0.000
  YS02001890              0.78    159.92      0  02:15       0.270     0.000
  YS02001907              1.50    718.03      0  02:16       2.619     0.000
  YS02001629              0.01     16.14      0  01:46       0.000     0.000
  YS02001644              4.58   1550.60      0  02:56      12.332     0.000
  YS02001649              0.01     23.03      0  04:06       0.000     0.000
  YS02001625              2.15    434.63      0  02:16       1.966     0.000
  YS02001790              0.01    138.79      0  04:42       0.000     0.000
  YS02001791              0.01    187.44      0  04:41       0.000     0.000
  JK-storage              0.43    439.23      0  04:45       0.340     0.000
  XR-storage              4.62    674.55      0  03:01       4.984     0.000
  
  
  **********************
  Storage Volume Summary
  **********************
  
  --------------------------------------------------------------------------------------------------
                         Average     Avg  Evap Exfil       Maximum     Max    Time of Max    Maximum
                          Volume    Pcnt  Pcnt  Pcnt        Volume    Pcnt     Occurrence    Outflow
  Storage Unit           1000 m3    Full  Loss  Loss       1000 m3    Full    days hr:min        LPS
  --------------------------------------------------------------------------------------------------
  JK-storage               0.141      48     0     0         0.291     100       0  04:43     983.00
  CC-storage               3.337      21     0     0         4.008      26       0  02:53     400.00
  XR-storage               0.849      92     0     0         0.926     100       0  02:10     380.00
  
  
  ***********************
  Outfall Loading Summary
  ***********************
  
  ---------------------------------------------------------------------------------------------------------------------------------
                         Flow       Avg       Max       Total         Total         Total         Total         Total         Total
                         Freq      Flow      Flow      Volume           COD            SS            TN            TP         NH4-N
  Outfall Node           Pcnt       LPS       LPS    10^6 ltr            kg            kg            kg            kg            kg
  ---------------------------------------------------------------------------------------------------------------------------------
  WSC                   99.98    861.24   1349.55      22.219      2685.626      4802.137       145.373        16.569        86.503
  ---------------------------------------------------------------------------------------------------------------------------------
  System                99.98    861.24   1349.55      22.219      2685.626      4802.137       145.373        16.569        86.503
  
  
  ********************
  Link Flow Summary
  ********************
  
  -----------------------------------------------------------------------------
                                 Maximum  Time of Max   Maximum    Max/    Max/
                                  |Flow|   Occurrence   |Veloc|    Full    Full
  Link                 Type          LPS  days hr:min     m/sec    Flow   Depth
  -----------------------------------------------------------------------------
  WS02003066WSF200     CONDUIT    956.99     0  01:55      3.01    0.16    0.32
  WS02006287WS02006284 CONDUIT    735.75     0  01:54      2.45    0.34    0.41
  WS02006284WS02006280 CONDUIT    736.11     0  01:54      2.68    0.31    0.38
  WS02006280WS02006229 CONDUIT    736.22     0  01:54      4.16    0.16    0.57
  WS02006229WS02006228 CONDUIT    934.66     0  01:52      1.86    3.10    1.00
  WS02006256WS02006235 CONDUIT    288.92     0  00:00      4.23    3.06    1.00
  WS02006253WS02006251 CONDUIT    167.59     0  01:51      0.72    0.50    1.00
  WS02006252WS02006251 CONDUIT    410.73     0  06:32      3.27    1.51    1.00
  WS02006251WS02006249 CONDUIT    456.15     0  06:32      1.19    1.32    1.00
  WS02006249WS02006248 CONDUIT    414.64     0  07:30      1.19    2.27    1.00
  WS02006248WS02006247 CONDUIT    414.52     0  07:30      1.17    0.90    1.00
  WS02006247WS02006245 CONDUIT    414.57     0  07:30      1.15    3.29    1.00
  WS02006245WS02006243 CONDUIT    414.04     0  07:30      1.19    1.22    1.00
  WS02006243WS02006242 CONDUIT    413.95     0  07:30      1.08    0.88    1.00
  WS02006242WS02006240 CONDUIT    413.92     0  07:30      1.08    1.64    1.00
  WS02006240WS02006239 CONDUIT    414.97     0  07:30      1.08    1.31    1.00
  WS02006239WS02006238 CONDUIT    415.24     0  07:30      1.08    1.33    1.00
  WS02006238WS02006235 CONDUIT    416.33     0  07:30      1.45    0.93    1.00
  WS02006235WS02006234 CONDUIT    528.33     0  06:32      1.37    5.57    1.00
  WS02006234WS02006232 CONDUIT    528.18     0  06:32      1.39    1.07    1.00
  WS02006232WS02006231 CONDUIT    527.27     0  06:32      1.37    1.10    1.00
  WS02006231WS02006230 CONDUIT    526.07     0  06:32      1.38    7.98    1.00
  WS02006230WS02006229 CONDUIT    537.55     0  06:32      1.40   11.96    1.00
  WS02006228WS02006109 CONDUIT    934.67     0  01:53      1.86    4.08    1.00
  WS02006116WS02004401 CONDUIT    968.35     0  01:52      1.23    1.33    1.00
  WS02006115WS02006116 CONDUIT    968.33     0  01:52      1.23    1.24    1.00
  WS02006113WS02006111 CONDUIT    936.14     0  01:53      2.64    1.12    1.00
  WS02006112WS02006115 CONDUIT    966.83     0  01:52      1.23    0.57    1.00
  WS02006111WS02006112 CONDUIT    936.47     0  01:52      1.86    0.45    1.00
  WS02006110WS02006113 CONDUIT    935.67     0  01:53      1.86    0.85    1.00
  WS02006109WS02006110 CONDUIT    936.04     0  01:53      1.86    1.80    1.00
  WS02004411WS02004412 CONDUIT    956.10     0  01:54      1.26    1.36    0.93
  WS02004401WS02004402 CONDUIT    968.41     0  01:52      1.23    1.16    1.00
  WS02004413WS02003067 CONDUIT    956.62     0  01:54      1.57    0.41    0.72
  WS02004412WS02004413 CONDUIT    956.42     0  01:54      1.24    0.64    0.96
  WS02004410WS02004411 CONDUIT    954.55     0  01:54      1.24    1.30    0.95
  WS02004409WS02004410 CONDUIT    956.61     0  01:53      1.24    1.24    0.97
  WS02004407WS02004409 CONDUIT    968.40     0  01:52      1.73    0.34    0.69
  WS02004406WS02004407 CONDUIT    971.27     0  01:52      1.65    0.43    0.70
  WS02004405WS02004406 CONDUIT    970.76     0  01:52      1.24    1.91    1.00
  WS02004404WS02004405 CONDUIT    970.91     0  01:52      1.24    9.51    1.00
  WS02004403WS02004404 CONDUIT    969.34     0  01:52      1.23    0.70    1.00
  WS02004402WS02004403 CONDUIT    969.25     0  01:52      1.23    1.39    1.00
  WS02004139WS02001211 CONDUIT    382.26     0  04:38      0.90    0.48    0.64
  WS02004138WS02004139 CONDUIT    395.52     0  00:00      3.64    0.08    0.47
  WS02003067WS02003066 CONDUIT    956.84     0  01:55      1.67    0.31    0.51
  WS02001213WS02003059 CONDUIT    396.93     0  04:37      0.89    0.66    0.88
  WS02001212WS02001213 CONDUIT    393.83     0  04:37      1.32    0.61    0.56
  WS02001211WS02001212 CONDUIT    391.77     0  04:38      0.78    0.30    0.72
  WS02003072WS02003073 CONDUIT   1347.10     0  02:01      1.97    2.91    0.58
  WS02003069WS02003072 CONDUIT   1347.00     0  02:01      1.82    0.65    0.62
  WS02003060WS02003069 CONDUIT   1346.66     0  02:00      2.03    0.53    0.57
  WS02003059WS02003060 CONDUIT    400.88     0  04:36      0.95    0.26    0.78
  HS02004901HS02004770 CONDUIT     36.85     0  01:52      0.10    0.14    0.54
  HS02004876HS02004881 CONDUIT    139.08     0  01:54      1.26    1.48    0.16
  HS02004870HS02004876 CONDUIT    112.62     0  01:54      0.85    0.07    0.19
  HS02004842HS02004848 CONDUIT     18.18     0  02:06      0.08    0.01    0.34
  HS02004837HS02004842 CONDUIT     18.64     0  02:07      0.42    0.01    0.35
  HS02004830HS02004837 CONDUIT     67.83     0  01:54      0.68    0.07    0.14
  HS02004824HS02004830 CONDUIT     68.05     0  01:56      0.62    0.09    0.18
  HS02004817HS02004824 CONDUIT    136.20     0  01:57      0.32    0.06    0.60
  HS02004770HS02004777 CONDUIT    189.69     0  01:52      0.49    0.35    0.55
  HS02004799HS02004480 CONDUIT    470.63     0  01:53      1.09    0.59    0.62
  HS02004792HS02004799 CONDUIT    430.88     0  01:53      1.22    0.26    0.50
  HS02004788HS02004792 CONDUIT    248.73     0  01:54      1.29    0.16    0.28
  HS02004785HS02004788 CONDUIT    189.53     0  01:53      0.92    1.43    0.30
  HS02004777HS02004785 CONDUIT    189.41     0  01:53      0.59    0.23    0.46
  HS02004480HS02004478 CONDUIT    554.38     0  01:53      1.59    2.33    0.50
  HS02004479HS02004480 CONDUIT     83.72     0  01:53      0.37    0.08    0.59
  HS02004862HS02004870 CONDUIT     86.18     0  01:55      0.82    0.09    0.15
  HS02004848HS02004852 CONDUIT     40.37     0  01:54      0.54    0.05    0.11
  HS02004856HS02004862 CONDUIT     60.18     0  01:54      0.61    0.06    0.14
  HS02004852HS02004856 CONDUIT     40.43     0  01:55      0.35    0.05    0.17
  HS02004802HS02004478 CONDUIT    184.69     0  01:57      0.53    0.16    0.50
  HS02004478WS02006287 CONDUIT    735.63     0  01:54      2.18    0.21    0.38
  HS02004817HS02004807 CONDUIT    136.98     0  01:57      0.26    0.08    0.77
  HS02004807HS02004802 CONDUIT    183.88     0  01:56      0.47    0.35    0.56
  YS02001759YS02001757 CONDUIT    878.72     0  01:57      1.12    0.62    1.00
  YS02001762YS02001759 CONDUIT    434.90     0  01:55      0.55    0.50    1.00
  YS02001765YS02001762 CONDUIT    434.75     0  01:55      0.55    0.41    1.00
  YS02001770YS02001767 CONDUIT    434.24     0  01:55      0.55    1.72    1.00
  YS02001774YS02001770 CONDUIT    710.75     0  02:56      0.90    0.45    1.00
  YS02001779YS02001774 CONDUIT    710.71     0  02:56      0.90    0.36    1.00
  YS02001649YS02001757 CONDUIT   1000.80     0  01:49      1.27    0.61    1.00
  YS02001767YS02001765 CONDUIT    434.62     0  01:55      0.55    0.55    1.00
  YS02006561YS02001783 CONDUIT   1063.77     0  01:52      2.14    0.55    1.00
  YS02001783YS02001784 CONDUIT   1064.82     0  01:52      2.12    1.47    1.00
  YS02001784YS02001785 CONDUIT   1065.93     0  01:52      2.12    2.48    1.00
  YS02001788YS02001790 CONDUIT   1060.24     0  01:52      2.44    0.78    1.00
  YS02001790YS02001791 CONDUIT   1059.85     0  01:52      2.91    1.15    1.00
  YS02001791YS02001793 CONDUIT   1059.94     0  01:53      5.75    0.46    1.00
  YS02001910YS02001907 CONDUIT    659.99     0  01:54      0.84    0.37    1.00
  YS02001786YS02001788 CONDUIT   1066.56     0  01:52      2.31    2.06    1.00
  YS02001915YS02001910 CONDUIT    659.58     0  01:54      0.84    0.33    1.00
  YS02001918YS02001915 CONDUIT    363.10     0  01:54      0.48    0.20    1.00
  YS02001923YS02001920 CONDUIT    357.83     0  01:54      0.82    0.16    1.00
  YS02001926YS02001923 CONDUIT    298.11     0  01:54      0.92    0.43    1.00
  YS02001929YS02001926 CONDUIT    239.83     0  01:54      0.98    0.11    0.96
  YS02001920YS02001918 CONDUIT    361.75     0  01:54      0.77    0.35    1.00
  YS02001629YS02163301 CONDUIT    221.85     0  01:45      0.28    0.27    1.00
  YS02001619YS02001622 CONDUIT    388.98     0  02:16      0.74    0.57    1.00
  YS02001622YS02001625 CONDUIT    388.66     0  02:15      0.49    0.21    1.00
  YS02001625YS02001629 CONDUIT    219.50     0  01:48      0.29    0.10    1.00
  YS02163301YS02001633 CONDUIT    223.59     0  01:45      0.28    0.21    1.00
  YS02163601YS02164001 CONDUIT    456.44     0  01:48      0.58    0.40    1.00
  YS02164001YS02001641 CONDUIT    455.44     0  01:48      0.58    0.62    1.00
  YS02001641YS02001644 CONDUIT    455.23     0  01:48      0.58    1.47    1.00
  YS02001647YS02001649 CONDUIT    791.59     0  02:55      1.01    0.42    1.00
  YS02006553YS02006556 CONDUIT    717.71     0  03:35      0.91    0.61    1.00
  YS02006556YS02006558 CONDUIT    717.96     0  03:35      0.91    0.57    1.00
  YSB6556YSB1171       CONDUIT     46.62     0  01:54      0.14    0.05    0.84
  YS02001907YS02006553 CONDUIT    717.55     0  03:35      0.80    0.84    1.00
  YS02006558YS02006561 CONDUIT   1083.67     0  01:52      3.83    2.40    1.00
  YS02001633YS02163601 CONDUIT    455.96     0  01:48      0.58    0.48    1.00
  YS02001644YS02001647 CONDUIT    791.58     0  02:56      1.01    0.46    1.00
  YS02001745YS02001748 CONDUIT    452.75     0  02:16      1.67    0.17    0.98
  YS02001748YS02001751 CONDUIT    452.25     0  02:16      1.21    0.23    1.00
  YS02001751YS02001754 CONDUIT    452.76     0  02:16      1.02    0.22    1.00
  YS02001754YS02001757 CONDUIT    452.22     0  02:16      0.58    0.18    1.00
  YS02001882YS02001884 CONDUIT     27.30     0  01:49      0.16    0.03    1.00
  YS02001884YS02001887 CONDUIT     45.57     0  01:48      0.12    0.06    1.00
  YS02001890YS02001895 CONDUIT    538.86     0  01:52      0.69    0.25    1.00
  YS02001895YS02001898 CONDUIT    539.35     0  01:52      0.69    0.94    1.00
  YS02001898YS02001901 CONDUIT    538.38     0  01:51      0.69    0.35    1.00
  YS02001901YS02001904 CONDUIT    540.07     0  01:51      0.69    0.84    1.00
  YS02001904YS02001907 CONDUIT    542.90     0  01:51      0.69    0.19    1.00
  YS02001887YS02001890 CONDUIT    677.45     0  02:14      0.86    1.16    1.00
  YS02001652YS02001649 CONDUIT    518.03     0  02:10      0.71    0.26    1.00
  YS02001655YS02001652 CONDUIT    515.97     0  02:08      1.09    0.25    1.00
  YS02001658YS02001655 CONDUIT    514.86     0  02:08      1.41    0.22    1.00
  YS02001661YS02001658 CONDUIT    522.66     0  02:02      1.78    0.21    1.00
  YS02001664YS02001661 CONDUIT    746.93     0  01:59      1.69    0.23    0.76
  YSB1154YSB6556       CONDUIT     46.64     0  01:52      0.16    0.08    0.75
  YSB1174YSB1171       CONDUIT     38.37     0  01:50      0.11    0.06    0.87
  YSB1171HS02004479    CONDUIT     83.76     0  01:53      0.54    0.06    0.70
  HS02004881HS02006253 CONDUIT    153.29     0  01:54      2.62    0.03    0.54
  YS02001793JiankangQianchi CONDUIT   1059.56     0  01:52     16.34    0.08    1.00
  YS02001757CaochengTiaoxuchi CONDUIT   2149.91     0  01:55      3.55    0.94    1.00
  WSF200WS02003060     CONDUIT    956.96     0  01:55      1.97    0.21    0.45
  1                    CONDUIT   1349.55     0  02:02      3.60    0.47    0.48
  CC-Pump-1            PUMP       200.00     0  02:20              1.00
  CC-Pump-2            PUMP       200.00     0  04:10              1.00
  JK-Pump-1            PUMP       300.00     0  00:00              1.00
  JK-Pump-2            PUMP       683.00     0  01:50              1.00
  XR-Pump-1            PUMP        95.00     0  00:00              1.00
  XR-Pump-2            PUMP        95.00     0  00:00              1.00
  XR-Pump-3            PUMP        95.00     0  00:00              1.00
  XR-Pump-4            PUMP        95.00     0  00:00              1.00
  
  
  ***************************
  Flow Classification Summary
  ***************************
  
  -------------------------------------------------------------------------------------
                      Adjusted    ---------- Fraction of Time in Flow Class ---------- 
                       /Actual         Up    Down  Sub   Sup   Up    Down  Norm  Inlet 
  Conduit               Length    Dry  Dry   Dry   Crit  Crit  Crit  Crit  Ltd   Ctrl  
  -------------------------------------------------------------------------------------
  WS02003066WSF200        1.00   0.01  0.02  0.00  0.00  0.97  0.00  0.00  0.46  0.00
  WS02006287WS02006284    1.00   0.03  0.01  0.00  0.64  0.32  0.00  0.00  0.63  0.00
  WS02006284WS02006280    1.00   0.04  0.00  0.00  0.00  0.00  0.00  0.96  0.00  0.00
  WS02006280WS02006229    1.00   0.04  0.00  0.00  0.02  0.03  0.00  0.91  0.02  0.00
  WS02006229WS02006228    1.00   0.00  0.00  0.00  1.00  0.00  0.00  0.00  0.00  0.00
  WS02006256WS02006235    1.00   0.00  0.00  0.00  1.00  0.00  0.00  0.00  0.00  0.00
  WS02006253WS02006251    1.00   0.02  0.01  0.00  0.96  0.00  0.01  0.00  0.00  0.00
  WS02006252WS02006251    1.00   0.09  0.00  0.00  0.17  0.00  0.74  0.00  0.00  0.00
  WS02006251WS02006249    1.00   0.00  0.00  0.00  1.00  0.00  0.00  0.00  0.18  0.00
  WS02006249WS02006248    1.00   0.00  0.01  0.00  0.94  0.00  0.06  0.00  0.00  0.00
  WS02006248WS02006247    1.00   0.01  0.00  0.00  0.99  0.00  0.00  0.00  0.09  0.00
  WS02006247WS02006245    1.00   0.00  0.00  0.00  0.99  0.00  0.00  0.01  0.00  0.00
  WS02006245WS02006243    1.00   0.00  0.00  0.00  0.96  0.00  0.00  0.03  0.00  0.00
  WS02006243WS02006242    1.00   0.00  0.00  0.00  1.00  0.00  0.00  0.00  0.20  0.00
  WS02006242WS02006240    1.00   0.00  0.00  0.00  0.99  0.00  0.01  0.00  0.00  0.00
  WS02006240WS02006239    1.00   0.00  0.00  0.00  0.95  0.00  0.00  0.04  0.01  0.00
  WS02006239WS02006238    1.00   0.00  0.00  0.00  1.00  0.00  0.00  0.00  0.10  0.00
  WS02006238WS02006235    1.00   0.00  0.00  0.00  1.00  0.00  0.00  0.00  0.00  0.00
  WS02006235WS02006234    1.00   0.00  0.00  0.00  0.97  0.00  0.03  0.00  0.00  0.00
  WS02006234WS02006232    1.00   0.00  0.00  0.00  1.00  0.00  0.00  0.00  0.06  0.00
  WS02006232WS02006231    1.00   0.00  0.00  0.00  1.00  0.00  0.00  0.00  0.00  0.00
  WS02006231WS02006230    1.00   0.00  0.00  0.00  0.81  0.00  0.19  0.00  0.00  0.00
  WS02006230WS02006229    1.00   0.00  0.00  0.00  1.00  0.00  0.00  0.00  0.00  0.00
  WS02006228WS02006109    1.00   0.00  0.00  0.00  1.00  0.00  0.00  0.00  0.00  0.00
  WS02006116WS02004401    1.00   0.01  0.00  0.00  0.99  0.00  0.00  0.00  0.00  0.00
  WS02006115WS02006116    1.00   0.01  0.00  0.00  0.99  0.00  0.00  0.00  0.00  0.00
  WS02006113WS02006111    1.00   0.01  0.00  0.00  0.07  0.93  0.00  0.00  0.13  0.00
  WS02006112WS02006115    1.00   0.01  0.00  0.00  0.99  0.00  0.00  0.00  0.00  0.00
  WS02006111WS02006112    1.00   0.01  0.00  0.00  0.99  0.00  0.00  0.00  0.79  0.00
  WS02006110WS02006113    1.00   0.00  0.00  0.00  0.99  0.00  0.00  0.00  0.00  0.00
  WS02006109WS02006110    1.00   0.00  0.00  0.00  0.99  0.00  0.00  0.00  0.00  0.00
  WS02004411WS02004412    1.00   0.02  0.00  0.00  0.98  0.00  0.00  0.00  0.00  0.00
  WS02004401WS02004402    1.00   0.01  0.00  0.00  0.99  0.00  0.00  0.00  0.00  0.00
  WS02004413WS02003067    1.00   0.02  0.01  0.00  0.00  0.00  0.98  0.00  0.00  0.00
  WS02004412WS02004413    1.00   0.02  0.00  0.00  0.98  0.00  0.00  0.00  0.01  0.00
  WS02004410WS02004411    1.00   0.02  0.00  0.00  0.98  0.00  0.00  0.00  0.00  0.00
  WS02004409WS02004410    1.00   0.01  0.00  0.00  0.99  0.00  0.00  0.00  0.02  0.00
  WS02004407WS02004409    1.00   0.01  0.00  0.00  0.98  0.00  0.00  0.00  0.95  0.00
  WS02004406WS02004407    1.00   0.00  0.01  0.00  0.99  0.00  0.00  0.00  0.00  0.00
  WS02004405WS02004406    1.00   0.00  0.00  0.00  1.00  0.00  0.00  0.00  0.00  0.00
  WS02004404WS02004405    1.00   0.00  0.00  0.00  1.00  0.00  0.00  0.00  0.00  0.00
  WS02004403WS02004404    1.00   0.00  0.01  0.00  0.99  0.00  0.00  0.00  0.00  0.00
  WS02004402WS02004403    1.00   0.01  0.00  0.00  0.99  0.00  0.00  0.00  0.00  0.00
  WS02004139WS02001211    1.00   0.00  0.00  0.00  1.00  0.00  0.00  0.00  0.00  0.00
  WS02004138WS02004139    1.00   0.00  0.00  0.00  1.00  0.00  0.00  0.00  1.00  0.00
  WS02003067WS02003066    1.00   0.02  0.00  0.00  0.97  0.00  0.00  0.00  0.00  0.00
  WS02001213WS02003059    1.00   0.00  0.00  0.00  1.00  0.00  0.00  0.00  0.00  0.00
  WS02001212WS02001213    1.00   0.00  0.00  0.00  0.95  0.00  0.05  0.00  0.00  0.00
  WS02001211WS02001212    1.00   0.00  0.00  0.00  1.00  0.00  0.00  0.00  0.00  0.00
  WS02003072WS02003073    1.00   0.00  0.00  0.00  0.00  0.00  0.00  1.00  0.00  0.00
  WS02003069WS02003072    1.00   0.00  0.00  0.00  1.00  0.00  0.00  0.00  0.06  0.00
  WS02003060WS02003069    1.00   0.00  0.00  0.00  0.99  0.01  0.00  0.00  0.05  0.00
  WS02003059WS02003060    1.00   0.00  0.00  0.00  1.00  0.00  0.00  0.00  0.01  0.00
  HS02004901HS02004770    1.00   0.03  0.00  0.00  0.97  0.00  0.00  0.00  0.00  0.00
  HS02004876HS02004881    1.00   0.01  0.00  0.00  0.91  0.08  0.00  0.00  0.00  0.00
  HS02004870HS02004876    1.00   0.00  0.00  0.00  0.99  0.00  0.00  0.00  0.95  0.00
  HS02004842HS02004848    1.00   0.00  0.03  0.00  0.97  0.00  0.00  0.00  0.56  0.00
  HS02004837HS02004842    1.00   0.00  0.00  0.00  1.00  0.00  0.00  0.00  0.11  0.00
  HS02004830HS02004837    1.00   0.00  0.00  0.00  1.00  0.00  0.00  0.00  0.99  0.00
  HS02004824HS02004830    1.00   0.00  0.00  0.00  1.00  0.00  0.00  0.00  0.03  0.00
  HS02004817HS02004824    1.00   0.00  0.00  0.00  1.00  0.00  0.00  0.00  0.92  0.00
  HS02004770HS02004777    1.00   0.00  0.03  0.00  0.97  0.00  0.00  0.00  0.02  0.00
  HS02004799HS02004480    1.00   0.00  0.01  0.00  0.96  0.00  0.03  0.00  0.00  0.00
  HS02004792HS02004799    1.00   0.00  0.00  0.00  1.00  0.00  0.00  0.00  0.98  0.00
  HS02004788HS02004792    1.00   0.00  0.00  0.00  1.00  0.00  0.00  0.00  0.98  0.00
  HS02004785HS02004788    1.00   0.00  0.00  0.00  1.00  0.00  0.00  0.00  0.00  0.00
  HS02004777HS02004785    1.00   0.00  0.00  0.00  1.00  0.00  0.00  0.00  0.11  0.00
  HS02004480HS02004478    1.00   0.04  0.00  0.00  0.70  0.00  0.00  0.26  0.00  0.00
  HS02004479HS02004480    1.00   0.01  0.00  0.00  0.99  0.00  0.00  0.00  0.11  0.00
  HS02004862HS02004870    1.00   0.00  0.00  0.00  1.00  0.00  0.00  0.00  0.03  0.00
  HS02004848HS02004852    1.00   0.03  0.00  0.00  0.97  0.00  0.00  0.00  0.79  0.00
  HS02004856HS02004862    1.00   0.00  0.04  0.00  0.96  0.00  0.00  0.00  0.84  0.00
  HS02004852HS02004856    1.00   0.03  0.00  0.00  0.96  0.00  0.00  0.00  0.77  0.00
  HS02004802HS02004478    1.00   0.04  0.00  0.00  0.96  0.00  0.00  0.00  0.02  0.00
  HS02004478WS02006287    1.00   0.04  0.00  0.00  0.78  0.19  0.00  0.00  0.62  0.00
  HS02004817HS02004807    1.00   0.00  0.03  0.00  0.97  0.00  0.00  0.00  0.01  0.00
  HS02004807HS02004802    1.00   0.03  0.00  0.00  0.96  0.00  0.00  0.00  0.00  0.00
  YS02001759YS02001757    1.00   0.00  0.00  0.00  1.00  0.00  0.00  0.00  0.15  0.00
  YS02001762YS02001759    1.00   0.00  0.00  0.00  1.00  0.00  0.00  0.00  0.02  0.00
  YS02001765YS02001762    1.00   0.00  0.00  0.00  1.00  0.00  0.00  0.00  0.13  0.00
  YS02001770YS02001767    1.00   0.00  0.00  0.00  1.00  0.00  0.00  0.00  0.00  0.00
  YS02001774YS02001770    1.00   0.00  0.03  0.00  0.96  0.00  0.00  0.00  0.02  0.00
  YS02001779YS02001774    1.00   0.00  0.00  0.00  1.00  0.00  0.00  0.00  0.17  0.00
  YS02001649YS02001757    1.00   0.00  0.00  0.00  1.00  0.00  0.00  0.00  0.15  0.00
  YS02001767YS02001765    1.00   0.00  0.00  0.00  1.00  0.00  0.00  0.00  0.00  0.00
  YS02006561YS02001783    1.00   0.04  0.00  0.00  0.37  0.59  0.00  0.00  0.42  0.00
  YS02001783YS02001784    1.00   0.00  0.04  0.00  0.96  0.00  0.00  0.00  0.00  0.00
  YS02001784YS02001785    1.00   0.00  0.00  0.00  1.00  0.00  0.00  0.00  0.16  0.00
  YS02001788YS02001790    1.00   0.00  0.00  0.00  0.41  0.59  0.00  0.00  0.37  0.00
  YS02001790YS02001791    1.00   0.00  0.00  0.00  0.38  0.62  0.00  0.00  0.43  0.00
  YS02001791YS02001793    1.00   0.00  0.00  0.00  0.41  0.59  0.00  0.00  0.02  0.00
  YS02001910YS02001907    1.00   0.00  0.00  0.00  0.99  0.00  0.00  0.01  0.12  0.00
  YS02001786YS02001788    1.00   0.00  0.00  0.00  0.38  0.62  0.00  0.00  0.00  0.00
  YS02001915YS02001910    1.00   0.00  0.00  0.00  0.99  0.01  0.00  0.00  0.13  0.00
  YS02001918YS02001915    1.00   0.00  0.00  0.00  0.99  0.01  0.00  0.00  0.51  0.00
  YS02001923YS02001920    1.00   0.00  0.00  0.00  1.00  0.00  0.00  0.00  0.74  0.00
  YS02001926YS02001923    1.00   0.00  0.02  0.00  0.22  0.00  0.76  0.00  0.00  0.00
  YS02001929YS02001926    1.00   0.00  0.03  0.00  0.97  0.00  0.00  0.00  0.65  0.00
  YS02001920YS02001918    1.00   0.00  0.00  0.00  1.00  0.00  0.00  0.00  0.00  0.00
  YS02001629YS02163301    1.00   0.04  0.00  0.00  0.96  0.00  0.00  0.00  0.00  0.00
  YS02001619YS02001622    1.00   0.03  0.00  0.00  0.97  0.00  0.00  0.00  0.00  0.00
  YS02001622YS02001625    1.00   0.03  0.00  0.00  0.96  0.00  0.00  0.00  0.03  0.00
  YS02001625YS02001629    1.00   0.03  0.01  0.00  0.94  0.00  0.01  0.00  0.00  0.00
  YS02163301YS02001633    1.00   0.00  0.04  0.00  0.96  0.00  0.00  0.00  0.00  0.00
  YS02163601YS02164001    1.00   0.00  0.02  0.00  0.98  0.00  0.00  0.00  0.00  0.00
  YS02164001YS02001641    1.00   0.00  0.02  0.00  0.98  0.00  0.00  0.00  0.06  0.00
  YS02001641YS02001644    1.00   0.00  0.00  0.00  1.00  0.00  0.00  0.00  0.00  0.00
  YS02001647YS02001649    1.00   0.00  0.04  0.00  0.96  0.00  0.00  0.00  0.01  0.00
  YS02006553YS02006556    1.00   0.00  0.00  0.00  1.00  0.00  0.00  0.00  0.03  0.00
  YS02006556YS02006558    1.00   0.00  0.00  0.00  1.00  0.00  0.00  0.00  0.00  0.00
  YSB6556YSB1171          1.00   0.01  0.02  0.00  0.97  0.00  0.00  0.00  0.00  0.00
  YS02001907YS02006553    1.00   0.00  0.01  0.00  0.99  0.00  0.00  0.00  0.00  0.00
  YS02006558YS02006561    1.00   0.04  0.00  0.00  0.22  0.74  0.00  0.00  0.43  0.00
  YS02001633YS02163601    1.00   0.00  0.00  0.00  1.00  0.00  0.00  0.00  0.15  0.00
  YS02001644YS02001647    1.00   0.00  0.04  0.00  0.96  0.00  0.00  0.00  0.00  0.00
  YS02001745YS02001748    1.00   0.00  0.00  0.00  0.93  0.00  0.00  0.07  0.01  0.00
  YS02001748YS02001751    1.00   0.00  0.00  0.00  0.98  0.02  0.00  0.00  0.14  0.00
  YS02001751YS02001754    1.00   0.00  0.00  0.00  0.95  0.00  0.00  0.05  0.01  0.00
  YS02001754YS02001757    1.00   0.00  0.00  0.00  1.00  0.00  0.00  0.00  0.17  0.00
  YS02001882YS02001884    1.00   0.04  0.00  0.00  0.96  0.00  0.00  0.00  0.00  0.00
  YS02001884YS02001887    1.00   0.02  0.01  0.00  0.97  0.00  0.00  0.00  0.00  0.00
  YS02001890YS02001895    1.00   0.00  0.04  0.00  0.96  0.00  0.00  0.00  0.00  0.00
  YS02001895YS02001898    1.00   0.04  0.00  0.00  0.95  0.00  0.01  0.00  0.00  0.00
  YS02001898YS02001901    1.00   0.04  0.00  0.00  0.96  0.00  0.00  0.00  0.01  0.00
  YS02001901YS02001904    1.00   0.04  0.00  0.00  0.96  0.00  0.00  0.00  0.00  0.00
  YS02001904YS02001907    1.00   0.00  0.04  0.00  0.96  0.00  0.00  0.00  0.00  0.00
  YS02001887YS02001890    1.00   0.00  0.00  0.00  0.99  0.00  0.01  0.00  0.00  0.00
  YS02001652YS02001649    1.00   0.00  0.00  0.00  1.00  0.00  0.00  0.00  0.15  0.00
  YS02001655YS02001652    1.00   0.00  0.00  0.00  0.95  0.00  0.00  0.05  0.01  0.00
  YS02001658YS02001655    1.00   0.00  0.04  0.00  0.94  0.02  0.00  0.00  0.02  0.00
  YS02001661YS02001658    1.00   0.04  0.00  0.00  0.93  0.03  0.00  0.00  0.01  0.00
  YS02001664YS02001661    1.00   0.03  0.00  0.00  0.94  0.03  0.00  0.00  0.10  0.00
  YSB1154YSB6556          1.00   0.03  0.00  0.00  0.97  0.00  0.00  0.00  0.01  0.00
  YSB1174YSB1171          1.00   0.02  0.01  0.00  0.97  0.00  0.00  0.00  0.00  0.00
  YSB1171HS02004479       1.00   0.01  0.00  0.00  0.98  0.00  0.00  0.00  0.10  0.00
  HS02004881HS02006253    1.00   0.02  0.00  0.00  0.84  0.01  0.00  0.13  0.69  0.00
  YS02001793JiankangQianchi    1.00   0.00  0.00  0.00  0.67  0.33  0.00  0.00  0.34  0.00
  YS02001757CaochengTiaoxuchi    1.00   0.00  0.06  0.00  0.92  0.03  0.00  0.00  0.00  0.00
  WSF200WS02003060        1.00   0.00  0.01  0.00  0.99  0.00  0.00  0.00  0.27  0.00
  1                       1.00   0.00  0.00  0.00  0.00  1.00  0.00  0.00  0.57  0.00
  
  
  *************************
  Conduit Surcharge Summary
  *************************
  
  ----------------------------------------------------------------------------
                                                           Hours        Hours 
                         --------- Hours Full --------   Above Full   Capacity
  Conduit                Both Ends  Upstream  Dnstream   Normal Flow   Limited
  ----------------------------------------------------------------------------
  WS02006229WS02006228        4.67      4.76      4.67      5.43         4.67
  WS02006256WS02006235        6.17      6.18      6.97      4.87         0.01
  WS02006253WS02006251        2.80      2.80      2.94      0.01         0.01
  WS02006252WS02006251        2.19      2.19      3.23      2.16         0.01
  WS02006251WS02006249        2.83      2.84      2.99      1.36         1.05
  WS02006249WS02006248        2.86      2.86      2.99      4.48         0.01
  WS02006248WS02006247        2.96      2.96      3.40      0.01         0.01
  WS02006247WS02006245        3.36      3.46      3.36      4.99         3.08
  WS02006245WS02006243        3.41      3.42      3.57      0.39         0.26
  WS02006243WS02006242        3.65      3.65      4.37      0.01         0.01
  WS02006242WS02006240        4.16      4.16      4.52      2.50         0.01
  WS02006240WS02006239        4.21      4.23      4.30      1.30         0.83
  WS02006239WS02006238        4.45      4.50      4.52      1.37         0.99
  WS02006238WS02006235        4.48      4.48      4.65      0.01         0.03
  WS02006235WS02006234        4.28      4.28      4.45      6.03         0.01
  WS02006234WS02006232        4.37      4.37      4.71      1.09         1.08
  WS02006232WS02006231        3.15      3.15      4.71      1.24         0.01
[...]
  YS02001779YS02001774        6.13      6.13      6.19      0.01         0.01
  YS02001649YS02001757        6.19      6.19      6.23      0.01         0.01
  YS02001767YS02001765        6.18      6.18      6.18      0.01         0.01
  YS02006561YS02001783        1.65      1.65      1.89      0.01         0.01
  YS02001783YS02001784        1.86      1.89      1.86      2.15         1.86
  YS02001784YS02001785        1.78      1.86      1.78      2.90         1.78
  YS02001788YS02001790        1.68      1.68      2.44      0.01         0.01
  YS02001790YS02001791        2.44      2.44      2.53      1.84         1.82
  YS02001791YS02001793        2.53      2.53      2.91      0.01         0.01
  YS02001910YS02001907        1.92      1.92      2.37      0.01         0.01
  YS02001786YS02001788        1.68      1.78      1.68      2.51         1.68
  YS02001915YS02001910        1.78      1.78      1.92      0.01         0.01
  YS02001918YS02001915        1.63      1.63      1.78      0.01         0.01
  YS02001923YS02001920        1.47      1.47      1.65      0.01         0.01
  YS02001926YS02001923        0.01      0.01      0.01      0.01         0.01
  YS02001929YS02001926        0.01      0.01      0.01      0.01         0.01
  YS02001920YS02001918        1.63      1.63      1.65      0.01         0.01
  YS02001629YS02163301        6.16      6.16      6.17      0.01         0.01
  YS02001619YS02001622        6.09      6.09      6.10      0.01         0.03
  YS02001622YS02001625        6.10      6.10      6.15      0.01         0.01
  YS02001625YS02001629        6.08      6.08      6.15      0.01         0.01
  YS02163301YS02001633        6.17      6.17      6.18      0.01         0.01
  YS02163601YS02164001        6.17      6.17      6.20      0.01         0.01
  YS02164001YS02001641        6.17      6.17      6.18      0.01         0.02
  YS02001641YS02001644        6.18      6.18      6.18      2.38         2.59
  YS02001647YS02001649        6.15      6.15      6.19      0.01         0.01
  YS02006553YS02006556        2.10      2.10      2.44      0.01         0.01
  YS02006556YS02006558        2.21      2.21      2.53      0.01         0.01
  YSB6556YSB1171              0.01      0.01      0.30      0.01         0.01
  YS02001907YS02006553        2.91      2.91      3.11      0.01         0.01
  YS02006558YS02006561        1.74      2.07      1.74      2.78         1.74
  YS02001633YS02163601        6.17      6.17      6.20      0.01         0.01
  YS02001644YS02001647        6.15      6.15      6.18      0.01         0.01
  YS02001745YS02001748        0.01      0.01      6.04      0.01         0.01
  YS02001748YS02001751        6.05      6.05      6.08      0.01         0.01
  YS02001751YS02001754        6.08      6.08      6.14      0.01         0.01
  YS02001754YS02001757        6.15      6.15      6.23      0.01         0.01
  YS02001882YS02001884        1.79      1.79      1.81      0.01         0.01
  YS02001884YS02001887        1.84      1.84      1.87      0.01         0.01
  YS02001890YS02001895        1.77      1.77      1.94      0.01         0.01
  YS02001895YS02001898        1.76      1.76      1.77      0.01         0.01
  YS02001898YS02001901        1.77      1.77      1.84      0.01         0.01
  YS02001901YS02001904        1.82      1.82      1.84      0.01         0.01
  YS02001904YS02001907        1.82      1.82      2.46      0.01         0.01
  YS02001887YS02001890        1.89      1.89      1.91      0.52         0.01
  YS02001652YS02001649        6.16      6.16      6.19      0.01         0.01
  YS02001655YS02001652        6.10      6.10      6.15      0.01         0.01
  YS02001658YS02001655        6.05      6.05      6.10      0.01         0.01
  YS02001661YS02001658        0.13      0.13      6.05      0.01         0.01
  YS02001664YS02001661        0.01      0.01      1.95      0.01         0.01
  HS02004881HS02006253        0.01      0.01      1.99      0.01         0.01
  YS02001793JiankangQianchi        2.81      2.81      4.30      0.01         0.01
  YS02001757CaochengTiaoxuchi        5.75      5.75      6.23      0.01         0.01
  
  
  ***************
  Pumping Summary
  ***************
  
  ---------------------------------------------------------------------------------------------------------
                                                  Min       Avg       Max     Total     Power    % Time Off
                        Percent   Number of      Flow      Flow      Flow    Volume     Usage    Pump Curve
  Pump                 Utilized   Start-Ups       LPS       LPS       LPS  10^6 ltr     Kw-hr    Low   High
  ---------------------------------------------------------------------------------------------------------
  CC-Pump-1               70.20           2      0.00    176.51    200.00     3.420      3.65    0.0    0.0
  CC-Pump-2               42.54           6      0.00     98.74    200.00     1.440      1.98    0.0    0.0
  JK-Pump-1               65.96           4      0.00    238.50    300.00     4.421     59.62    0.0    0.0
  JK-Pump-2               59.57           3      0.00    455.32    683.00     8.045     97.25    0.0   98.0
  XR-Pump-1               97.87           2      0.00     94.53     95.00     2.565     20.93    0.0    0.0
  XR-Pump-2               97.87           2      0.00     94.53     95.00     2.565     20.93    0.0    0.0
  XR-Pump-3               97.87           2      0.00     94.53     95.00     2.565     20.93    0.0    0.0
  XR-Pump-4               97.87           2      0.00     94.53     95.00     2.565     20.93    0.0    0.0
  
  
  ***************************
  Link Pollutant Load Summary
  ***************************
  
  ------------------------------------------------------------------------------------------
                                 COD            SS            TN            TP         NH4-N
  Link                            kg            kg            kg            kg            kg
  ------------------------------------------------------------------------------------------
  WS02003066WSF200          1174.268      2258.579        27.900         2.317        14.344
  WS02006287WS02006284       438.114       854.601        12.587         1.181         6.763
  WS02006284WS02006280       438.616       855.410        12.635         1.187         6.793
  WS02006280WS02006229       438.624       855.466        12.633         1.187         6.792
  WS02006229WS02006228      1175.420      2260.145        27.437         2.244        14.031
  WS02006256WS02006235       242.172       457.078         5.094         0.383         2.539
  WS02006253WS02006251        85.760       171.926         1.882         0.142         0.934
  WS02006252WS02006251       488.409       931.118         9.398         0.642         4.527
  WS02006251WS02006249       564.744      1085.294        11.093         0.772         5.371
  WS02006249WS02006248       507.641       972.658         9.995         0.696         4.842
  WS02006248WS02006247       503.963       964.899         9.925         0.691         4.809
  WS02006247WS02006245       504.087       965.263         9.926         0.691         4.809
  WS02006245WS02006243       504.379       966.049         9.928         0.691         4.810
  WS02006243WS02006242       505.202       967.678         9.949         0.693         4.821
  WS02006242WS02006240       504.889       966.957         9.951         0.693         4.823
  WS02006240WS02006239       505.000       966.858         9.969         0.696         4.835
  WS02006239WS02006238       505.425       967.211        10.001         0.700         4.855
  WS02006238WS02006235       505.561       967.123        10.015         0.701         4.864
  WS02006235WS02006234       740.889      1412.170        14.906         1.066         7.292
  WS02006234WS02006232       740.210      1410.961        14.892         1.065         7.285
  WS02006232WS02006231       739.449      1409.571        14.876         1.064         7.277
  WS02006231WS02006230       738.976      1408.704        14.869         1.064         7.274
  WS02006230WS02006229       739.081      1408.920        14.881         1.065         7.282
  WS02006228WS02006109      1174.251      2258.062        27.401         2.241        14.012
  WS02006116WS02004401      1191.435      2290.195        28.276         2.344        14.531
  WS02006115WS02006116      1193.211      2293.434        28.324         2.349        14.557
  WS02006113WS02006111      1179.548      2266.019        28.117         2.334        14.467
  WS02006112WS02006115      1194.848      2296.415        28.376         2.354        14.585
  WS02006111WS02006112      1178.715      2264.436        28.091         2.331        14.453
  WS02006110WS02006113      1180.238      2267.212        28.141         2.336        14.480
  WS02006109WS02006110      1181.611      2269.639        28.189         2.341        14.507
  WS02004411WS02004412      1178.658      2266.598        28.030         2.329        14.415
  WS02004401WS02004402      1189.722      2287.074        28.225         2.340        14.504
  WS02004413WS02003067      1175.163      2260.253        27.918         2.318        14.353
  WS02004412WS02004413      1176.953      2263.490        27.982         2.325        14.389
  WS02004410WS02004411      1180.090      2269.218        28.068         2.332        14.434
  WS02004409WS02004410      1181.533      2271.852        28.108         2.336        14.456
  WS02004407WS02004409      1182.788      2274.143        28.138         2.338        14.471
  WS02004406WS02004407      1183.146      2274.788        28.141         2.338        14.472
  WS02004405WS02004406      1185.100      2278.325        28.203         2.344        14.506
  WS02004404WS02004405      1186.809      2281.509        28.222         2.344        14.512
  WS02004403WS02004404      1186.653      2281.481        28.140         2.332        14.458
  WS02004402WS02004403      1188.089      2284.102        28.182         2.336        14.481
  WS02004139WS02001211      1372.120      2324.733       103.068        12.435        63.112
  WS02004138WS02004139      1378.275      2335.123       103.525        12.490        63.391
  WS02003067WS02003066      1174.491      2258.992        27.906         2.318        14.348
  WS02001213WS02003059      1405.432      2376.866       106.557        12.876        65.306
  WS02001212WS02001213      1414.235      2391.593       107.244        12.959        65.728
  WS02001211WS02001212      1416.506      2395.304       107.441        12.983        65.850
  WS02003072WS02003073      2678.843      4792.441       144.424        16.445        85.898
  WS02003069WS02003072      2684.358      4801.532       144.874        16.500        86.176
  WS02003060WS02003069      2687.181      4806.517       145.015        16.516        86.259
  WS02003059WS02003060      1402.425      2371.707       106.355        12.852        65.183
  HS02004901HS02004770        19.400        38.445         0.369         0.028         0.174
  HS02004876HS02004881        64.844       131.159         1.382         0.100         0.674
  HS02004870HS02004876        49.302        99.621         1.095         0.080         0.537
  HS02004842HS02004848         9.278        18.136         0.191         0.013         0.089
  HS02004837HS02004842        13.925        25.525         0.662         0.072         0.384
  HS02004830HS02004837        81.309       145.734         4.858         0.568         2.931
  HS02004824HS02004830        82.103       147.040         4.931         0.577         2.976
  HS02004817HS02004824       118.567       221.811         5.667         0.624         3.333
  HS02004770HS02004777        73.687       147.831         1.507         0.104         0.700
  HS02004799HS02004480       235.092       460.660         5.679         0.484         2.882
  HS02004792HS02004799       214.149       417.348         5.330         0.464         2.722
  HS02004788HS02004792       116.319       227.351         3.333         0.303         1.755
  HS02004785HS02004788        75.104       150.097         1.653         0.123         0.793
  HS02004777HS02004785        74.433       149.022         1.592         0.115         0.755
  HS02004480HS02004478       294.437       579.957         6.704         0.559         3.370
  HS02004479HS02004480        62.982       125.169         1.335         0.113         0.681
  HS02004862HS02004870        37.532        74.851         0.862         0.066         0.425
  HS02004848HS02004852        15.822        31.382         0.320         0.022         0.149
  HS02004856HS02004862        25.851        52.199         0.514         0.035         0.242
  HS02004852HS02004856        15.836        31.405         0.320         0.022         0.149
  HS02004802HS02004478       144.602       276.125         5.948         0.629         3.433
  HS02004478WS02006287       438.259       854.808        12.603         1.183         6.773
  HS02004817HS02004807       117.210       219.671         5.527         0.607         3.246
  HS02004807HS02004802       144.767       276.376         5.980         0.634         3.453
  YS02001759YS02001757       447.808       846.062         8.762         0.612         4.271
  YS02001762YS02001759       234.271       440.128         4.790         0.337         2.354
  YS02001765YS02001762       235.779       444.142         4.834         0.340         2.378
  YS02001770YS02001767       240.411       456.354         4.774         0.325         2.323
  YS02001774YS02001770       442.055       868.082         8.513         0.572         4.120
  YS02001779YS02001774       440.967       865.984         8.571         0.582         4.162
  YS02001649YS02001757       416.840       777.213         8.263         0.571         3.976
  YS02001767YS02001765       238.126       449.832         4.888         0.344         2.406
  YS02006561YS02001783      1272.460      2402.911        26.213         1.935        12.970
  YS02001783YS02001784      1272.319      2402.676        26.208         1.934        12.967
  YS02001784YS02001785      1279.658      2414.439        26.921         2.024        13.413
  YS02001788YS02001790      1280.225      2415.333        26.992         2.033        13.459
  YS02001790YS02001791      1281.168      2416.830        27.091         2.045        13.520
  YS02001791YS02001793      1281.028      2416.562        27.086         2.045        13.517
  YS02001910YS02001907       564.103      1065.240        12.702         0.936         6.407
  YS02001786YS02001788      1279.857      2414.772        26.949         2.027        13.431
  YS02001915YS02001910       564.198      1065.393        12.660         0.930         6.379
  YS02001918YS02001915       276.572       501.432         6.817         0.586         3.579
  YS02001923YS02001920       252.277       460.262         4.804         0.340         2.334
  YS02001926YS02001923       249.389       455.176         4.686         0.328         2.266
  YS02001929YS02001926       247.583       452.023         4.610         0.320         2.222
  YS02001920YS02001918       273.167       494.190         6.736         0.580         3.539
  YS02001629YS02163301        89.569       159.096         1.892         0.124         0.887
  YS02001619YS02001622       259.374       485.222         5.243         0.348         2.461
  YS02001622YS02001625       258.404       483.697         5.219         0.346         2.450
  YS02001625YS02001629        86.646       153.300         1.847         0.120         0.864
  YS02163301YS02001633        94.395       168.563         1.969         0.131         0.926
  YS02163601YS02164001       529.106       976.647        10.166         0.735         4.887
  YS02164001YS02001641       528.991       976.436        10.153         0.733         4.879
  YS02001641YS02001644       530.025       978.169        10.166         0.734         4.884
  YS02001647YS02001649       571.600      1072.540        11.305         0.790         5.399
  YS02006553YS02006556       791.559      1476.074        16.783         1.269         8.402
  YS02006556YS02006558       791.662      1476.260        16.748         1.264         8.378
  YSB6556YSB1171              36.521        72.733         0.718         0.059         0.359
  YS02001907YS02006553       791.575      1476.121        16.811         1.273         8.421
  YS02006558YS02006561      1272.461      2402.911        26.213         1.935        12.970
  YS02001633YS02163601       529.704       977.593        10.143         0.730         4.869
  YS02001644YS02001647       579.604      1087.752        11.435         0.799         5.460
  YS02001745YS02001748       354.086       679.984         6.989         0.437         3.358
  YS02001748YS02001751       353.404       678.828         6.997         0.440         3.366
  YS02001751YS02001754       352.503       677.345         6.983         0.440         3.361
  YS02001754YS02001757       353.341       678.604         7.150         0.462         3.469
  YS02001882YS02001884         3.636         6.441         0.070         0.005         0.034
  YS02001884YS02001887         7.497        13.549         0.142         0.011         0.070
  YS02001890YS02001895       615.415      1176.682        11.372         0.859         5.549
  YS02001895YS02001898       615.303      1176.570        11.366         0.859         5.545
  YS02001898YS02001901       615.089      1176.172        11.361         0.858         5.543
  YS02001901YS02001904       614.992      1176.038        11.372         0.860         5.550
  YS02001904YS02001907       615.267      1176.435        11.428         0.867         5.586
  YS02001887YS02001890       669.240      1284.333        12.356         0.936         6.032
  YS02001652YS02001649       309.202       587.758         6.131         0.444         2.882
  YS02001655YS02001652       309.888       588.866         6.150         0.445         2.891
  YS02001658YS02001655       309.586       588.392         6.068         0.434         2.837
  YS02001661YS02001658       310.268       589.514         6.084         0.435         2.844
  YS02001664YS02001661       325.968       614.840         6.452         0.460         3.013
  YSB1154YSB6556              36.101        72.068         0.671         0.053         0.330
  YSB1174YSB1171              24.945        50.011         0.488         0.039         0.242
  YSB1171HS02004479           62.902       125.019         1.340         0.114         0.684
  HS02004881HS02006253        73.351       148.917         1.532         0.109         0.745
  YS02001793JiankangQianchi      1281.688      2417.646        27.111         2.047        13.532
  YS02001757CaochengTiaoxuchi       750.842      1412.778        14.762         1.010         7.130
  WSF200WS02003060          1173.854      2257.791        27.897         2.317        14.344
  1                         2685.626      4802.137       145.373        16.569        86.503
  CC-Pump-1                  345.972       660.164         6.644         0.454         3.199
  CC-Pump-2                  142.157       270.370         2.747         0.188         1.324
  JK-Pump-1                  355.463       677.420         7.274         0.540         3.601
  JK-Pump-2                  778.508      1489.408        15.816         1.171         7.818
  XR-Pump-1                  345.460       585.268        25.952         3.131        15.891
  XR-Pump-2                  345.460       585.268        25.952         3.131        15.891
  XR-Pump-3                  345.460       585.268        25.952         3.131        15.891
  XR-Pump-4                  345.460       585.268        25.952         3.131        15.891
  

  Analysis begun on:  Tue Jul 13 23:28:38 2021
  Analysis ended on:  Tue Jul 13 23:28:41 2021
  Total elapsed time: 00:00:03