
  EPA STORM WATER MANAGEMENT MODEL - VERSION 5.1 (Build 5.3.0.dev0)
  --------------------------------------------------------------

  WARNING 04: minimum elevation drop used for Conduit WS02004404WS02004405
  WARNING 03: negative offset ignored for Link YS02001904YS02001907
  
  *********************************************************
  NOTE: The summary statistics displayed in this report are
  based on results found at every computational time step,  
  not just on results from each reporting time step.
  *********************************************************
  
  ****************
  Analysis Options
  ****************
  Flow Units ............... LPS
  Process Models:
    Rainfall/Runoff ........ YES
    RDII ................... NO
    Snowmelt ............... NO
    Groundwater ............ NO
    Flow Routing ........... YES
    Ponding Allowed ........ NO
    Water Quality .......... YES
  Infiltration Method ...... HORTON
  Flow Routing Method ...... DYNWAVE
  Surcharge Method ......... EXTRAN
  Starting Date ............ 08/28/2015 08:00:00
  Ending Date .............. 08/28/2015 16:00:00
  Antecedent Dry Days ...... 8.0
  Report Time Step ......... 00:01:00
  Wet Time Step ............ 00:01:00
  Dry Time Step ............ 00:01:00
  Routing Time Step ........ 5.00 sec
  Variable Time Step ....... YES
  Maximum Trials ........... 8
  Number of Threads ........ 4
  Head Tolerance ........... 0.001500 m
  
  
  **************************        Volume         Depth
  Runoff Quantity Continuity     hectare-m            mm
  **************************     ---------       -------
  Total Precipitation ......        27.779        60.819
  Evaporation Loss .........         0.000         0.000
  Infiltration Loss ........         1.768         3.870
  Surface Runoff ...........        24.134        52.839
  Final Storage ............         1.881         4.118
  Continuity Error (%) .....        -0.012
  
  
  **************************           COD            SS            TN            TP         NH4-N
  Runoff Quality Continuity             kg            kg            kg            kg            kg
  **************************    ----------    ----------    ----------    ----------    ----------
  Initial Buildup ..........     41378.656     70582.865      1804.177       168.684      1032.807
  Surface Buildup ..........        98.667       217.144         3.867         0.324         2.025
  Wet Deposition ...........         0.000         0.000         0.000         0.000         0.000
  Sweeping Removal .........         0.000         0.000         0.000         0.000         0.000
  Infiltration Loss ........       155.921       282.443         4.184         0.326         2.122
  BMP Removal ..............         0.000         0.000         0.000         0.000         0.000
  Surface Runoff ...........     28692.651     54510.107       701.694        53.145       350.255
  Remaining Buildup ........     12625.278     16005.678      1101.923       115.517       682.325
  Continuity Error (%) .....         0.008         0.003         0.013         0.012         0.013
  
  
  **************************        Volume        Volume
  Flow Routing Continuity        hectare-m      10^6 ltr
  **************************     ---------     ---------
  Dry Weather Inflow .......         0.630         6.296
  Wet Weather Inflow .......        24.132       241.318
  Groundwater Inflow .......         0.000         0.000
  RDII Inflow ..............         0.000         0.000
  External Inflow ..........         0.105         1.045
  External Outflow .........         2.843        28.427
  Flooding Loss ............        21.483       214.836
  Evaporation Loss .........         0.000         0.000
  Exfiltration Loss ........         0.000         0.000
  Initial Stored Volume ....         0.076         0.761
  Final Stored Volume ......         0.618         6.180
  Continuity Error (%) .....        -0.010
  
  
  **************************           COD            SS            TN            TP         NH4-N
  Quality Routing Continuity            kg            kg            kg            kg            kg
  **************************    ----------    ----------    ----------    ----------    ----------
  Dry Weather Inflow .......      1573.993      2518.389       151.103        18.888        94.440
  Wet Weather Inflow .......     28693.117     54511.863       701.683        53.144       350.248
  Groundwater Inflow .......         0.000         0.000         0.000         0.000         0.000
  RDII Inflow ..............         0.000         0.000         0.000         0.000         0.000
  External Inflow ..........       187.321       299.713        17.983         2.248        11.239
  External Outflow .........      3235.113      5863.306       121.399        11.751        67.053
  Flooding Loss ............     26510.432     50099.203       727.321        60.444       376.810
  Exfiltration Loss ........         0.000         0.000         0.000         0.000         0.000
  Mass Reacted .............         0.000         0.000         0.000         0.000         0.000
  Initial Stored Mass ......         0.000         0.000         0.000         0.000         0.000
  Final Stored Mass ........       715.852      1394.105        21.235         1.973        11.519
  Continuity Error (%) .....        -0.023        -0.046         0.093         0.150         0.120
  
  
  *************************
  Highest Continuity Errors
  *************************
  Node YS02001884 (11.62%)
  Node HS02004842 (1.91%)
  Node WS02003059 (1.25%)
  
  
  ***************************
  Time-Step Critical Elements
  ***************************
  Link WS02006280WS02006229 (40.60%)
  Link WS02006256WS02006235 (26.16%)
  Link YS02006556YS02006558 (7.91%)
  Link YS02001661YS02001658 (3.60%)
  Link HS02004478WS02006287 (2.90%)
  
  
  ********************************
  Highest Flow Instability Indexes
  ********************************
  Link WS02006113WS02006111 (18)
  Link YS02006558YS02006561 (17)
  Link YS02006561YS02001783 (16)
  Link YS02001882YS02001884 (15)
  Link YS02001884YS02001887 (14)
  
  
  *************************
  Routing Time Step Summary
  *************************
  Minimum Time Step           :     0.50 sec
  Average Time Step           :     2.10 sec
  Maximum Time Step           :     5.00 sec
  Percent in Steady State     :     0.00
  Average Iterations per Step :     2.66
  Percent Not Converging      :     5.86
  
  
  ***************************
  Subcatchment Runoff Summary
  ***************************
  
  ------------------------------------------------------------------------------------------------------------------------------
                            Total      Total      Total      Total     Imperv       Perv      Total       Total     Peak  Runoff
                           Precip      Runon       Evap      Infil     Runoff     Runoff     Runoff      Runoff   Runoff   Coeff
  Subcatchment                 mm         mm         mm         mm         mm         mm         mm    10^6 ltr      LPS
  ------------------------------------------------------------------------------------------------------------------------------
  sub0                      60.82       0.00       0.00       0.80      56.53       3.46      59.98        0.05    10.50   0.986
  sub1                      60.82       0.00       0.00       1.44      54.04       5.25      59.29        0.39    83.02   0.975
  sub2                      60.82       0.00       0.00       6.74      38.23      15.77      54.00        0.50   106.60   0.888
  sub3                      60.82       0.00       0.00       7.37      38.19      15.13      53.32        1.20   248.78   0.877
  sub4                      60.82       0.00       0.00       1.66      53.86       5.03      58.89        1.23   248.54   0.968
  sub5                      60.82       0.00       0.00       0.87      56.47       3.39      59.86        0.68   142.18   0.984
  sub7                      60.82       0.00       0.00       1.10      55.29       4.38      59.67        0.20    42.90   0.981
  sub8                      60.82       0.00       0.00       1.12      55.28       4.36      59.64        0.38    80.86   0.981
  sub9                      60.82       0.00       0.00       1.12      55.28       4.35      59.63        0.29    60.78   0.980
  sub10                     60.82       0.00       0.00       1.00      55.87       3.87      59.73        0.66   138.70   0.982
  sub11                     60.82       0.00       0.00       0.98      55.89       3.89      59.78        0.69   147.50   0.983
  sub12                     60.82       0.00       0.00       1.59      52.87       6.32      59.19        0.52   111.81   0.973
  sub14                     60.82       0.00       0.00       1.12      55.27       4.35      59.62        0.57   120.17   0.980
  sub15                     60.82       0.00       0.00       4.63      42.51      13.61      56.13        0.97   207.66   0.923
  sub16                     60.82       0.00       0.00       4.73      40.71      15.34      56.06        0.59   128.49   0.922
  sub17                     60.82       0.00       0.00       4.62      41.32      14.85      56.17        0.48   105.20   0.923
  sub22                     60.82       0.00       0.00       7.08      34.63      19.07      53.70        3.39   740.07   0.883
  sub23                     60.82       0.00       0.00       5.73      38.28      16.78      55.05        2.63   572.39   0.905
  sub60                     60.82       0.00       0.00       2.82      50.94       4.48      55.41       16.80  2846.95   0.911
  sub61                     60.82       0.00       0.00       4.00      49.03       6.34      55.38       17.08  3085.21   0.911
  sub62                     60.82       0.00       0.00       1.54      54.08       3.33      57.41       17.65  3143.69   0.944
  sub63                     60.82       0.00       0.00       7.96      42.19       9.68      51.87       15.70  2828.43   0.853
  sub64                     60.82       0.00       0.00       3.83      49.11       5.29      54.39       16.54  2774.44   0.894
  sub65                     60.82       0.00       0.00       3.19      50.16       4.71      54.88       16.88  2822.73   0.902
  sub66                     60.82       0.00       0.00       8.72      41.33       8.47      49.81       15.27  2531.03   0.819
  sub67                     60.82       0.00       0.00       1.40      54.82       3.47      58.29       17.99  3361.28   0.958
  sub68                     60.82       0.00       0.00       2.99      51.00       5.52      56.52       17.38  3195.92   0.929
  sub69                     60.82       0.00       0.00       2.90      50.99       6.23      57.22       13.37  2579.68   0.941
  sub70                     60.82      58.42       0.00      10.22      76.81      27.26     104.07       23.82  3821.74   0.873
  sub71                     60.82       0.00       0.00       1.59      53.69       3.27      56.96       13.45  2341.64   0.937
  sub72                     60.82       0.00       0.00       1.69      50.29       2.57      52.86       10.77  1535.61   0.869
  1                         60.82     101.35       0.00       1.40     103.49      45.46     148.94       35.00  4610.91   0.918
  2                         60.82       0.00       0.00       3.09      15.04      23.51      38.56       15.42  1925.59   0.634
  
  
  ****************************
  Subcatchment Washoff Summary
  ****************************
  
  ------------------------------------------------------------------------------------------
                                 COD            SS            TN            TP         NH4-N
  Subcatchment                    kg            kg            kg            kg            kg
  ------------------------------------------------------------------------------------------
  sub0                        11.538        20.058         0.300         0.027         0.156
  sub1                        55.612       104.459         1.418         0.109         0.719
  sub2                        49.774        95.120         1.297         0.096         0.631
  sub3                       126.707       241.790         3.239         0.242         1.582
  sub4                       141.501       279.085         3.525         0.240         1.769
  sub5                       120.956       219.725         3.092         0.254         1.586
  sub7                        27.220        51.842         0.693         0.051         0.351
  sub8                        41.958        83.529         1.058         0.070         0.531
  sub9                        35.606        69.177         0.901         0.064         0.455
  sub10                      100.836       187.665         2.569         0.201         1.310
  sub11                       97.297       184.006         2.478         0.187         1.259
  sub12                       83.619       152.302         2.160         0.176         1.103
  sub14                       75.720       144.657         1.922         0.141         0.974
  sub15                      124.492       229.721         3.230         0.257         1.610
  sub16                       79.976       146.025         2.086         0.169         1.043
  sub17                       72.487       129.974         1.890         0.159         0.949
  sub22                      467.142       855.349        11.934         0.974         5.936
  sub23                      247.038       474.707         6.533         0.473         3.178
  sub60                     1883.450      3698.357        44.557         3.109        22.215
  sub61                     2248.844      4282.314        53.314         4.062        26.825
  sub62                     2151.104      4178.798        51.777         3.704        25.944
  sub63                     1854.600      3512.888        44.993         3.472        22.070
  sub64                     2515.361      4712.673        58.951         4.694        29.514
  sub65                     2532.233      4765.477        59.444         4.673        29.776
  sub66                     1615.628      3138.517        37.953         2.765        18.579
  sub67                     2924.329      5415.037        71.192         5.728        36.162
  sub68                     2318.000      4421.597        56.160         4.224        28.142
  sub69                     1914.043      3597.637        47.174         3.658        23.743
  sub70                     3407.908      6243.689        96.430         7.525        48.744
  sub71                     1462.997      2918.550        35.184         2.328        17.497
  sub72                     1547.928      2957.238        34.963         2.658        17.464
  1                         3173.911      5844.548        89.650         6.978        44.983
  2                          504.787       994.922        13.230         0.860         5.944
  ------------------------------------------------------------------------------------------
  System                   34014.603     64351.433       845.298        64.329       422.741
  
  
  ******************
  Node Depth Summary
  ******************
  
  ---------------------------------------------------------------------------------
                                 Average  Maximum  Maximum  Time of Max    Reported
                                   Depth    Depth      HGL   Occurrence   Max Depth
  Node                 Type       Meters   Meters   Meters  days hr:min      Meters
  ---------------------------------------------------------------------------------
  WS02001211           JUNCTION     0.30     0.48     5.31     0  03:03        0.47
  WS02001212           JUNCTION     0.10     0.30     5.37     0  03:03        0.30
  WS02001213           JUNCTION     0.42     0.67     5.43     0  03:02        0.67
  WS02003069           JUNCTION     0.29     0.58     5.17     0  03:02        0.58
  WS02003072           JUNCTION     0.35     0.64     5.01     0  03:03        0.64
  WS02003073           JUNCTION     0.20     0.40     4.46     0  03:03        0.40
  WS02003060           JUNCTION     0.26     0.52     5.45     0  03:02        0.52
  WS02003066           JUNCTION     0.22     0.43     5.98     0  03:01        0.43
  WS02003059           JUNCTION     0.50     0.76     5.45     0  03:02        0.76
  WS02003067           JUNCTION     0.52     0.85     6.17     0  03:00        0.85
  WS02004401           JUNCTION     0.73     1.62     7.62     0  03:01        1.62
  WS02004402           JUNCTION     0.75     1.58     7.54     0  03:01        1.58
  WS02004403           JUNCTION     0.75     1.52     7.45     0  03:01        1.52
  WS02004404           JUNCTION     0.81     1.54     7.39     0  03:01        1.54
  WS02004406           JUNCTION     0.80     1.41     7.24     0  03:01        1.41
  WS02004409           JUNCTION     0.51     1.26     7.03     0  03:01        1.26
  WS02004410           JUNCTION     0.52     1.19     6.91     0  03:01        1.19
  WS02004411           JUNCTION     0.52     1.13     6.81     0  03:01        1.12
  WS02004412           JUNCTION     0.52     1.05     6.69     0  03:01        1.05
  WS02004413           JUNCTION     0.66     1.11     6.58     0  03:01        1.11
  WS02004405           JUNCTION     0.80     1.50     7.35     0  03:01        1.50
  WS02006109           JUNCTION     0.91     2.51     9.12     0  03:01        2.50
  WS02006110           JUNCTION     0.86     2.20     8.79     0  03:01        2.20
  WS02006111           JUNCTION     0.39     1.46     8.17     0  03:01        1.46
  WS02006112           JUNCTION     0.94     2.07     7.95     0  03:01        2.07
  WS02006113           JUNCTION     0.45     1.59     8.49     0  03:01        1.59
  WS02006115           JUNCTION     0.65     1.68     7.82     0  03:01        1.68
  WS02006116           JUNCTION     0.72     1.69     7.73     0  03:01        1.69
  WS02006230           JUNCTION     0.84     2.44     9.18     0  03:01        2.44
  WS02006231           JUNCTION     0.50     1.68     8.80     0  03:01        1.68
  WS02006232           JUNCTION     0.53     1.42     8.46     0  03:01        1.42
  WS02006234           JUNCTION     0.34     0.90     8.06     0  03:01        0.90
  WS02006235           JUNCTION     0.26     0.55     7.71     0  03:01        0.55
  WS02006238           JUNCTION     0.28     0.58     7.72     0  03:01        0.58
  WS02006240           JUNCTION     0.15     0.48     7.77     0  03:03        0.48
  WS02006242           JUNCTION     0.18     0.55     7.82     0  03:03        0.55
  WS02006243           JUNCTION     0.09     0.43     7.85     0  03:03        0.43
  WS02006245           JUNCTION     0.10     0.42     7.90     0  03:02        0.42
  WS02006247           JUNCTION     0.11     0.44     7.94     0  03:02        0.44
  WS02006248           JUNCTION     0.08     0.39     7.98     0  03:02        0.39
  WS02006249           JUNCTION     0.11     0.43     8.03     0  03:02        0.43
  WS02006239           JUNCTION     0.22     0.53     7.74     0  03:01        0.53
  WS02006251           JUNCTION     0.09     0.42     8.09     0  03:01        0.42
  WS02006252           JUNCTION     0.00     0.00     8.24     0  00:00        0.00
  WS02006253           JUNCTION     0.27     1.10     8.74     0  03:03        1.06
  WS02006256           JUNCTION     2.21     2.35     9.28     0  00:00        2.35
  WS02004138           JUNCTION     0.14     0.14     7.39     0  00:00        0.14
  WS02004139           JUNCTION     0.18     0.27     5.18     0  03:04        0.27
  WS02004407           JUNCTION     0.24     0.74     7.05     0  03:01        0.74
  WS02006228           JUNCTION     0.95     2.77     9.42     0  03:01        2.76
  WS02006229           JUNCTION     0.96     2.89     9.59     0  03:01        2.89
  WS02006280           JUNCTION     0.26     1.39     9.66     0  03:01        1.38
  WS02006284           JUNCTION     0.56     1.51     9.90     0  03:01        1.50
  WS02006287           JUNCTION     0.30     1.21    10.16     0  03:01        1.21
  WSF200               JUNCTION     0.20     0.44     5.67     0  03:01        0.44
  HS02004901           JUNCTION     0.29     1.42    11.24     0  02:58        1.42
  HS02004881           JUNCTION     0.04     0.22     9.25     0  03:02        0.21
  HS02004876           JUNCTION     0.13     0.55     9.58     0  03:02        0.51
  HS02004870           JUNCTION     0.08     0.46     9.74     0  03:01        0.45
  HS02004862           JUNCTION     0.10     0.52     9.90     0  03:01        0.52
  HS02004856           JUNCTION     0.15     0.59    10.01     0  03:01        0.58
  HS02004852           JUNCTION     0.08     0.57    10.08     0  03:01        0.56
  HS02004848           JUNCTION     0.08     0.55    10.15     0  03:01        0.55
  HS02004842           JUNCTION     0.40     0.93    10.20     0  03:01        0.93
  HS02004837           JUNCTION     0.10     0.63    10.21     0  03:01        0.63
  HS02004830           JUNCTION     0.14     0.76    10.23     0  03:01        0.76
  HS02004824           JUNCTION     0.15     0.84    10.25     0  03:01        0.84
  HS02004817           JUNCTION     0.61     1.40    10.25     0  03:01        1.40
  HS02004807           JUNCTION     0.30     1.08    10.25     0  03:01        1.08
  HS02004802           JUNCTION     0.33     1.12    10.25     0  03:01        1.12
  HS02004799           JUNCTION     0.36     1.44    10.65     0  03:01        1.44
  HS02004792           JUNCTION     0.22     1.44    10.96     0  03:01        1.43
  HS02004788           JUNCTION     0.14     1.18    11.08     0  03:01        1.18
  HS02004785           JUNCTION     0.19     1.23    11.13     0  03:01        1.23
  HS02004777           JUNCTION     0.31     1.40    11.20     0  03:01        1.40
  HS02004770           JUNCTION     0.29     1.41    11.24     0  03:01        1.41
  HS02004480           JUNCTION     0.29     1.22    10.46     0  03:01        1.22
  HS02004479           JUNCTION     0.32     1.26    10.47     0  03:01        1.26
  HS02004478           JUNCTION     0.23     1.03    10.25     0  03:01        1.02
  YS02001745           JUNCTION     1.05     2.27     9.78     0  03:01        2.26
  YS02001748           JUNCTION     1.39     2.27     9.35     0  02:45        2.27
  YS02001751           JUNCTION     1.51     2.20     9.08     0  03:02        2.19
  YS02001754           JUNCTION     1.70     2.19     8.79     0  03:05        2.18
  YS02001762           JUNCTION     1.86     2.15     8.55     0  02:51        2.15
  YS02001765           JUNCTION     1.80     2.09     8.54     0  03:03        2.08
  YS02001767           JUNCTION     1.76     2.02     8.51     0  03:07        2.01
  YS02001770           JUNCTION     1.74     1.95     8.44     0  01:19        1.95
  YS02001774           JUNCTION     1.79     2.00     8.42     0  03:07        1.99
  YS02001779           JUNCTION     1.52     1.68     8.37     0  01:21        1.68
  YS02001882           JUNCTION     1.16     1.83     8.55     0  02:53        1.83
  YS02001884           JUNCTION     1.25     1.93     8.55     0  02:53        1.92
  YS02001759           JUNCTION     1.90     2.21     8.57     0  02:28        2.21
  YS02001887           JUNCTION     1.33     2.00     8.54     0  02:13        2.00
  YS02001890           JUNCTION     1.30     1.81     8.32     0  01:26        1.81
  YS02001898           JUNCTION     1.06     1.57     8.30     0  01:26        1.56
  YS02001901           JUNCTION     1.17     1.68     8.29     0  01:26        1.67
  YS02001904           JUNCTION     1.15     1.65     8.28     0  01:26        1.63
  YS02001907           JUNCTION     1.47     1.96     8.25     0  01:26        1.96
  YS02001910           JUNCTION     1.35     2.01     8.52     0  03:07        2.01
  YS02001915           JUNCTION     1.22     2.00     8.72     0  02:13        2.00
  YS02001918           JUNCTION     0.96     1.81     8.88     0  01:26        1.81
  YS02001619           JUNCTION     1.37     1.61     8.54     0  01:21        1.61
  YS02001629           JUNCTION     1.67     1.85     8.40     0  01:21        1.85
  YS02001641           JUNCTION     1.76     1.97     8.41     0  03:07        1.96
  YS02001644           JUNCTION     1.75     1.92     8.35     0  01:22        1.92
  YS02001652           JUNCTION     1.70     2.15     8.75     0  03:03        2.15
  YS02001655           JUNCTION     1.52     2.20     9.05     0  02:48        2.20
  YS02001920           JUNCTION     1.06     2.00     9.01     0  03:01        2.00
  YS02001923           JUNCTION     0.87     1.87     9.13     0  03:01        1.87
  YS02001926           JUNCTION     0.82     1.80     9.25     0  03:01        1.80
  YS02001929           JUNCTION     0.65     1.78     9.47     0  01:27        1.69
  YS02001658           JUNCTION     1.31     2.30     9.44     0  02:58        2.30
  YS02001661           JUNCTION     1.13     2.43     9.84     0  02:59        2.43
  YS02001664           JUNCTION     0.71     2.31    10.23     0  02:59        2.31
  YS02001622           JUNCTION     1.37     1.62     8.52     0  01:21        1.58
  YS02001633           JUNCTION     1.79     2.08     8.53     0  02:35        2.08
  YS02001649           JUNCTION     1.83     2.05     8.44     0  01:22        2.05
  YS02001757           JUNCTION     1.97     2.21     8.47     0  01:22        2.21
  YS02001895           JUNCTION     1.06     1.57     8.31     0  01:29        1.56
  YS02001625           JUNCTION     1.61     1.78     8.38     0  01:21        1.78
  YS02163301           JUNCTION     1.71     1.95     8.47     0  03:08        1.95
  YS02163601           JUNCTION     1.82     2.08     8.48     0  02:51        2.08
  YS02164001           JUNCTION     1.75     1.98     8.43     0  03:03        1.97
  YS02001647           JUNCTION     1.60     1.80     8.41     0  01:23        1.79
  YSB1154              JUNCTION     0.46     1.43    10.49     0  03:01        1.43
  YSB6556              JUNCTION     0.36     1.31    10.48     0  03:01        1.31
  YSB1174              JUNCTION     0.41     1.37    10.48     0  03:01        1.37
  YSB1171              JUNCTION     0.61     1.57    10.47     0  03:01        1.57
  YS02006553           JUNCTION     1.48     2.12     8.40     0  03:01        2.12
  YS02006561           JUNCTION     0.75     1.55     8.21     0  01:29        1.43
  YS02006556           JUNCTION     1.47     2.31     8.62     0  03:01        2.31
  YS02006558           JUNCTION     1.52     2.47     8.74     0  03:01        2.47
  YS02001783           JUNCTION     1.08     2.06     8.20     0  01:29        1.78
  YS02001784           JUNCTION     1.06     2.09     8.16     0  01:29        1.68
  YS02001786           JUNCTION     0.95     2.06     8.09     0  01:29        1.47
  YS02001788           JUNCTION     0.85     1.90     7.88     0  01:29        1.28
  YS02001790           JUNCTION     1.02     1.96     7.60     0  01:28        1.39
  YS02001791           JUNCTION     1.02     1.98     7.45     0  01:28        1.31
  YS02001793           JUNCTION     1.46     2.02     6.85     0  01:28        1.80
  WSC                  OUTFALL      0.20     0.40     1.07     0  03:03        0.40
  3                    OUTFALL      0.00     0.00     7.16     0  00:00        0.00
  4                    OUTFALL      0.00     0.00     7.67     0  00:00        0.00
  5                    OUTFALL      0.00     0.00     4.91     0  00:00        0.00
  JK-storage           STORAGE      5.01     5.80     6.60     0  01:29        5.80
  CC-storage           STORAGE      1.19     1.49     8.49     0  02:09        1.49
  XR-storage           STORAGE      7.49     7.72     5.72     0  01:23        7.72
  
  
  *******************
  Node Inflow Summary
  *******************
  
  -------------------------------------------------------------------------------------------------
                                  Maximum  Maximum                  Lateral       Total        Flow
                                  Lateral    Total  Time of Max      Inflow      Inflow     Balance
                                   Inflow   Inflow   Occurrence      Volume      Volume       Error
  Node                 Type           LPS      LPS  days hr:min    10^6 ltr    10^6 ltr     Percent
  -------------------------------------------------------------------------------------------------
  WS02001211           JUNCTION      7.35   268.42     0  03:03       0.212        1.61       0.374
  WS02001212           JUNCTION      0.00   261.29     0  03:03           0         1.4       0.004
  WS02001213           JUNCTION      0.00   261.49     0  03:02           0        1.41       0.643
  WS02003069           JUNCTION      0.32   945.61     0  03:02     0.00922        7.29       0.085
  WS02003072           JUNCTION      0.00   945.28     0  03:02           0        7.28       0.135
  WS02003073           JUNCTION      1.82   946.83     0  03:03      0.0524        7.32       0.117
  WS02003060           JUNCTION     16.53  1207.36     0  03:02       0.476        8.71       0.066
  WS02003066           JUNCTION      0.00  1190.58     0  03:01           0        8.23       0.024
  WS02003059           JUNCTION      0.00   261.91     0  03:02           0        1.43       1.265
  WS02003067           JUNCTION      0.00  1190.28     0  03:01           0        8.24       0.059
  WS02004401           JUNCTION      0.00  1191.49     0  03:01           0        8.36       0.143
  WS02004402           JUNCTION      0.00  1191.44     0  03:01           0        8.35       0.144
  WS02004403           JUNCTION      0.00  1191.46     0  03:01           0        8.34       0.138
  WS02004404           JUNCTION      0.16  1191.58     0  03:01     0.00467        8.33       0.111
  WS02004406           JUNCTION      0.00  1191.73     0  03:01           0        8.31       0.271
  WS02004409           JUNCTION      0.00  1190.42     0  03:01           0        8.29       0.065
  WS02004410           JUNCTION      0.00  1190.33     0  03:01           0        8.28       0.083
  WS02004411           JUNCTION      0.00  1191.07     0  03:01           0        8.27       0.095
  WS02004412           JUNCTION      0.00  1190.63     0  03:01           0        8.27       0.116
  WS02004413           JUNCTION      0.00  1190.33     0  03:01           0        8.26       0.207
  WS02004405           JUNCTION      0.04  1191.68     0  03:01      0.0011        8.33       0.171
  WS02006109           JUNCTION      1.23  1087.48     0  03:01      0.0354        7.94       0.125
  WS02006110           JUNCTION      0.00  1087.97     0  03:01           0        7.93       0.137
  WS02006111           JUNCTION      0.00  1088.12     0  03:01           0        7.92       0.020
  WS02006112           JUNCTION    105.20  1191.64     0  03:01       0.482         8.4       0.194
  WS02006113           JUNCTION      0.00  1087.78     0  03:01           0        7.92       0.046
  WS02006115           JUNCTION      0.00  1191.56     0  03:01           0        8.38       0.143
  WS02006116           JUNCTION      0.00  1191.51     0  03:01           0        8.37       0.062
  WS02006230           JUNCTION     10.28   910.43     0  03:01       0.296        5.16       0.129
  WS02006231           JUNCTION      0.00   910.49     0  03:01           0        4.94       0.051
  WS02006232           JUNCTION      0.00   910.54     0  03:01           0        4.93       0.118
  WS02006234           JUNCTION      0.00   910.60     0  03:01           0        4.93       0.046
  WS02006235           JUNCTION      0.00  1361.07     0  03:01           0        11.7       0.019
  WS02006238           JUNCTION      0.00   226.64     0  03:04           0       0.611       0.298
  WS02006240           JUNCTION      0.00   225.34     0  03:03           0       0.592       0.068
  WS02006242           JUNCTION      0.00   224.47     0  03:03           0       0.588       0.081
  WS02006243           JUNCTION      0.00   224.44     0  03:02           0       0.586      -0.038
  WS02006245           JUNCTION      0.00   225.04     0  03:02           0       0.586       0.125
  WS02006247           JUNCTION      0.00   226.32     0  03:02           0       0.587       0.043
  WS02006248           JUNCTION      0.00   227.27     0  03:01           0       0.587      -0.007
  WS02006249           JUNCTION      0.00   229.16     0  03:01           0       0.587       0.077
  WS02006239           JUNCTION      0.00   225.81     0  03:03           0       0.602       0.288
  WS02006251           JUNCTION      0.08  1141.08     0  03:01     0.00222         3.4      -0.005
  WS02006252           JUNCTION      0.00     0.00     0  00:00           0           0       0.000 ltr
  WS02006253           JUNCTION     10.50  1201.62     0  03:03      0.0486         3.4       0.015
  WS02006256           JUNCTION      0.00   300.00     0  00:00           0        7.46      -0.018
  WS02004138           JUNCTION      0.00   190.00     0  00:00           0        5.47       0.070
  WS02004139           JUNCTION      0.32   458.60     0  03:03     0.00924        7.08       0.065
  WS02004407           JUNCTION      0.00  1191.85     0  03:01           0        8.29       0.026
  WS02006228           JUNCTION      0.00  1086.25     0  03:01           0        7.91       0.076
  WS02006229           JUNCTION      0.00  1985.98     0  03:01           0        12.4       0.067
  WS02006280           JUNCTION      0.00  1986.23     0  03:01           0        11.7       0.001
  WS02006284           JUNCTION      0.10  1986.32     0  03:01     0.00275        11.7       0.011
  WS02006287           JUNCTION      0.00  1986.49     0  03:01           0        11.7       0.019
  WSF200               JUNCTION      0.00  1190.68     0  03:01           0        8.23       0.011
  HS02004901           JUNCTION    128.49   128.49     0  03:01       0.587       0.587       0.370
  HS02004881           JUNCTION     42.90  1191.82     0  03:02       0.201        3.35       0.026
  HS02004876           JUNCTION     83.02  1091.23     0  03:01       0.394        3.15      -0.012
  HS02004870           JUNCTION     80.86  1012.41     0  03:01       0.381        2.75       0.005
  HS02004862           JUNCTION    106.80   936.51     0  03:01       0.509        2.37       0.009
  HS02004856           JUNCTION     60.78   834.36     0  03:01       0.287        1.86       0.080
  HS02004852           JUNCTION      0.00   779.57     0  03:01           0        1.58       0.004
  HS02004848           JUNCTION    248.78   782.35     0  03:01         1.2        1.73      -0.001
  HS02004842           JUNCTION      0.00   534.92     0  03:01           0       0.697       1.948
  HS02004837           JUNCTION    145.05   538.30     0  03:01       0.842        1.25       0.062
  HS02004830           JUNCTION      0.15   394.31     0  03:01     0.00432       0.963       0.179
  HS02004824           JUNCTION    248.59   394.28     0  03:01        1.23        1.99       0.041
  HS02004817           JUNCTION      0.60   290.94     0  03:08      0.0173         1.8       0.933
  HS02004807           JUNCTION    147.50   354.39     0  02:28       0.695        2.43       0.228
  HS02004802           JUNCTION      0.00   369.24     0  03:07           0        2.38       0.185
  HS02004799           JUNCTION    120.17  1733.19     0  03:01       0.568        8.18       0.054
  HS02004792           JUNCTION    740.35  1613.22     0  03:00         3.4        7.61       0.019
  HS02004788           JUNCTION    209.33   887.06     0  02:59        1.01        4.22       0.009
  HS02004785           JUNCTION      0.15   682.74     0  02:59     0.00432         3.2       0.030
  HS02004777           JUNCTION      0.03   682.83     0  02:59    0.000864        3.21       0.190
  HS02004770           JUNCTION    572.39   683.53     0  02:59        2.63        3.21       0.138
  HS02004480           JUNCTION      0.00  1986.12     0  03:01           0        9.37       0.025
  HS02004479           JUNCTION      0.00   253.57     0  03:01           0         1.2       0.095
  HS02004478           JUNCTION      0.00  2009.22     0  02:50           0        11.7       0.003
  YS02001745           JUNCTION   2846.95  2846.95     0  03:01        16.8        16.8       0.072
  YS02001748           JUNCTION      0.04  2846.50     0  03:01      0.0013        16.8       0.133
  YS02001751           JUNCTION      0.01  2354.36     0  02:53    0.000317        16.5       0.146
  YS02001754           JUNCTION      0.26  2355.17     0  02:51     0.00749        16.5       0.144
  YS02001762           JUNCTION      0.00   723.11     0  03:03           0        6.74       0.312
  YS02001765           JUNCTION      0.00   722.54     0  03:03           0        6.74       0.360
  YS02001767           JUNCTION      0.54   723.21     0  03:03      0.0154        6.77       0.528
  YS02001770           JUNCTION   3143.85  3866.03     0  03:01        17.7        23.7       0.130
  YS02001774           JUNCTION      0.00   852.25     0  02:53           0        10.9       0.231
  YS02001779           JUNCTION      0.01   851.78     0  02:55    0.000144        10.8       0.136
  YS02001882           JUNCTION      0.00    44.65     0  01:23           0       0.024      10.262
  YS02001884           JUNCTION      0.00    67.02     0  01:22           0      0.0611      13.150
  YS02001759           JUNCTION   3085.25  3085.25     0  03:01        17.1        17.8       0.127
  YS02001887           JUNCTION   3361.73  3361.73     0  03:01          18          18       0.052
  YS02001890           JUNCTION      0.00  2052.03     0  02:48           0        15.9       0.061
  YS02001898           JUNCTION      0.00   617.52     0  01:26           0        6.72       0.049
  YS02001901           JUNCTION      0.00   617.51     0  01:26           0        6.72       0.117
  YS02001904           JUNCTION      0.00   616.51     0  01:26           0        6.72       0.088
  YS02001907           JUNCTION      0.00  4596.49     0  03:01           0        33.8       0.067
  YS02001910           JUNCTION      0.00  1993.18     0  03:03           0        20.5       0.064
  YS02001915           JUNCTION   2341.66  3563.36     0  03:01        13.5        24.1       0.031
  YS02001918           JUNCTION      0.00  1539.96     0  03:01           0        10.9       0.019
  YS02001619           JUNCTION   2531.03  2531.03     0  03:01        15.3        15.3       0.078
  YS02001629           JUNCTION      0.00  1139.08     0  02:52           0        8.06       0.343
  YS02001641           JUNCTION      0.00   906.43     0  03:07           0        10.3       0.203
  YS02001644           JUNCTION   2774.48  4526.13     0  03:01        16.5        39.6       0.062
  YS02001652           JUNCTION      0.00  2429.39     0  02:52           0        15.4       0.144
  YS02001655           JUNCTION      0.15  2731.44     0  03:01     0.00443        15.6       0.163
  YS02001920           JUNCTION      2.87  1539.32     0  03:01      0.0827        10.9       0.034
  YS02001923           JUNCTION      0.04  1535.94     0  03:01     0.00109        10.8       0.022
  YS02001926           JUNCTION      0.05  1535.78     0  03:01      0.0015        10.8       0.038
  YS02001929           JUNCTION   1535.61  1535.61     0  03:01        10.8        10.8       0.010
  YS02001658           JUNCTION      0.00  2783.08     0  03:01           0        15.7       0.149
  YS02001661           JUNCTION      0.00  2783.08     0  03:01           0        15.7       0.133
  YS02001664           JUNCTION   2828.43  2828.43     0  03:01        15.7        15.7       0.035
  YS02001622           JUNCTION      0.00  1054.04     0  02:54           0        11.6       0.267
  YS02001633           JUNCTION   2822.93  2822.93     0  03:01        16.9          18       0.178
  YS02001649           JUNCTION      0.00  3237.25     0  02:53           0        26.2       0.139
  YS02001757           JUNCTION      0.00  3831.17     0  03:02           0        28.6       0.318
  YS02001895           JUNCTION      0.00   617.62     0  01:26           0        6.72       0.098
  YS02001625           JUNCTION      0.00  1505.55     0  02:52           0        15.6       0.254
  YS02163301           JUNCTION      0.00  1138.99     0  02:55           0        8.06       0.295
  YS02163601           JUNCTION      0.11   905.89     0  03:07     0.00317        10.3       0.291
  YS02164001           JUNCTION      0.00   906.27     0  03:08           0        10.3       0.194
  YS02001647           JUNCTION      0.00   846.70     0  03:11           0        13.1       0.215
  YSB1154              JUNCTION    142.18   142.18     0  03:01       0.678       0.678       0.231
  YSB6556              JUNCTION      0.00   142.12     0  03:01           0       0.679       0.236
  YSB1174              JUNCTION    111.81   111.81     0  03:01       0.517       0.518       0.284
  YSB1171              JUNCTION      0.00   253.67     0  03:01           0         1.2       0.578
  YS02006553           JUNCTION      0.00  2087.86     0  03:01           0        13.2       0.115
  YS02006561           JUNCTION      0.00  1158.74     0  01:26           0        17.5       0.007
  YS02006556           JUNCTION      0.00  2087.29     0  03:01           0        13.2       0.075
  YS02006558           JUNCTION   3196.80  3196.80     0  03:01        17.4        24.1       0.021
  YS02001783           JUNCTION      0.00  1150.07     0  01:28           0        17.5       0.018
  YS02001784           JUNCTION      1.06  1151.18     0  01:28      0.0305        17.5       0.030
  YS02001786           JUNCTION      0.06  1151.23     0  01:28     0.00162        17.5       0.028
  YS02001788           JUNCTION      0.07  1152.28     0  01:28     0.00204        17.5       0.015
  YS02001790           JUNCTION      0.15  1164.10     0  01:28     0.00446        17.5       0.020
  YS02001791           JUNCTION      0.00  1267.21     0  01:27           0        17.5       0.005
  YS02001793           JUNCTION      0.00  1189.56     0  01:27           0        17.5      -0.008
  WSC                  OUTFALL       0.00   946.48     0  03:03           0        7.31       0.000
  3                    OUTFALL       0.00  1360.97     0  03:01           0        11.2       0.000
  4                    OUTFALL       0.00   911.71     0  03:01           0        2.81       0.000
  5                    OUTFALL       0.00   458.53     0  03:04           0        7.08       0.000
  JK-storage           STORAGE       0.00  1122.67     0  01:26           0        17.6      -0.078
  CC-storage           STORAGE       0.00  2220.04     0  01:35           0         4.4       1.500
  XR-storage           STORAGE    6736.50  6736.50     0  03:01        56.2        56.8      -0.002
  
  
  **********************
  Node Surcharge Summary
  **********************
  
  Surcharging occurs when water rises above the top of the highest conduit.
  ---------------------------------------------------------------------
                                               Max. Height   Min. Depth
                                   Hours       Above Crown    Below Rim
  Node                 Type      Surcharged         Meters       Meters
  ---------------------------------------------------------------------
  WS02004401           JUNCTION        1.73          0.622        1.038
  WS02004402           JUNCTION        1.75          0.580        1.160
  WS02004403           JUNCTION        1.75          0.522        1.508
  WS02004404           JUNCTION        1.86          0.543        2.237
  WS02004406           JUNCTION        1.82          0.410        2.040
  WS02004409           JUNCTION        0.98          0.261        2.099
  WS02004410           JUNCTION        0.89          0.192        2.348
  WS02004411           JUNCTION        0.76          0.126        2.404
  WS02004412           JUNCTION        0.51          0.048        2.262
  WS02004413           JUNCTION        1.32          0.110        2.090
  WS02004405           JUNCTION        1.84          0.501        2.299
  WS02006109           JUNCTION        2.10          1.686        0.134
  WS02006110           JUNCTION        1.93          1.292        0.558
  WS02006111           JUNCTION        1.19          0.652        1.218
  WS02006112           JUNCTION        1.96          1.069        0.611
  WS02006113           JUNCTION        1.22          0.792        1.138
  WS02006115           JUNCTION        1.61          0.671        1.579
  WS02006116           JUNCTION        1.63          0.629        1.661
  WS02006230           JUNCTION        1.72          1.359        0.211
  WS02006231           JUNCTION        1.62          0.970        0.560
  WS02006232           JUNCTION        1.71          0.721        0.759
  WS02006234           JUNCTION        0.93          0.182        1.058
  WS02006253           JUNCTION        0.03          0.057        2.423
  WS02006256           JUNCTION        6.92          2.050        0.000
  WS02006228           JUNCTION        2.09          1.936        0.264
  WS02006229           JUNCTION        0.78          0.712        0.358
  WS02006280           JUNCTION        0.46          0.336        0.444
  WS02006284           JUNCTION        0.32          0.225        0.575
  WS02006287           JUNCTION        0.21          0.208        0.682
  HS02004901           JUNCTION        0.39          0.720        0.000
  HS02004842           JUNCTION        0.25          0.234        1.286
  HS02004830           JUNCTION        0.08          0.060        1.270
  HS02004824           JUNCTION        0.14          0.144        1.166
  HS02004817           JUNCTION        1.95          0.701        1.039
  HS02004807           JUNCTION        0.44          0.382        0.838
  HS02004802           JUNCTION        0.51          0.413        0.797
  HS02004799           JUNCTION        1.18          0.743        0.317
  HS02004792           JUNCTION        0.55          0.735        0.165
  HS02004788           JUNCTION        0.21          0.484        0.236
  HS02004785           JUNCTION        0.22          0.531        0.259
  HS02004777           JUNCTION        0.38          0.699        0.081
  HS02004770           JUNCTION        0.37          0.713        0.007
  HS02004480           JUNCTION        0.63          0.512        0.588
  HS02004479           JUNCTION        0.46          0.461        0.589
  HS02004478           JUNCTION        0.10          0.105        0.835
  YS02001745           JUNCTION        2.57          1.266        0.084
  YS02001748           JUNCTION        6.63          1.190        0.000
  YS02001751           JUNCTION        6.64          1.200        0.000
  YS02001754           JUNCTION        6.65          1.136        0.014
  YS02001762           JUNCTION        6.68          1.150        0.000
  YS02001765           JUNCTION        6.67          1.086        0.014
  YS02001767           JUNCTION        6.67          1.016        0.014
  YS02001770           JUNCTION        6.67          0.920        0.000
  YS02001774           JUNCTION        6.68          1.002        0.048
  YS02001779           JUNCTION        6.65          0.680        0.000
  YS02001882           JUNCTION        3.75          0.830        0.000
  YS02001884           JUNCTION        3.78          0.870        0.000
  YS02001759           JUNCTION        6.68          1.210        0.000
  YS02001887           JUNCTION        3.86          0.950        0.000
  YS02001890           JUNCTION        3.89          0.760        0.000
  YS02001898           JUNCTION        3.72          0.537        0.203
  YS02001901           JUNCTION        3.83          0.678        0.192
  YS02001904           JUNCTION        3.81          0.651        0.199
  YS02001907           JUNCTION        4.28          0.950        0.000
  YS02001910           JUNCTION        3.94          1.014        0.086
  YS02001915           JUNCTION        3.76          1.000        0.000
  YS02001918           JUNCTION        3.53          0.810        0.000
  YS02001619           JUNCTION        6.65          0.610        0.000
  YS02001629           JUNCTION        6.64          0.470        0.000
  YS02001641           JUNCTION        6.67          0.969        0.131
  YS02001644           JUNCTION        6.67          0.920        0.000
  YS02001652           JUNCTION        6.65          1.121        0.009
  YS02001655           JUNCTION        6.64          1.200        0.000
  YS02001920           JUNCTION        3.57          1.002        0.138
  YS02001923           JUNCTION        2.13          0.658        0.162
  YS02001926           JUNCTION        2.28          0.804        0.096
  YS02001929           JUNCTION        1.62          0.780        0.000
  YS02001658           JUNCTION        6.63          1.300        0.000
  YS02001661           JUNCTION        2.65          1.364        0.026
  YS02001664           JUNCTION        1.29          1.310        0.000
  YS02001622           JUNCTION        6.65          0.620        0.000
  YS02001633           JUNCTION        6.67          1.060        0.000
  YS02001649           JUNCTION        6.67          1.050        0.000
  YS02001757           JUNCTION        6.69          1.210        0.000
  YS02001895           JUNCTION        3.73          0.568        0.182
  YS02001625           JUNCTION        6.65          0.780        0.000
  YS02163301           JUNCTION        6.66          0.954        0.076
  YS02163601           JUNCTION        6.67          1.078        0.002
  YS02164001           JUNCTION        6.67          0.975        0.125
  YS02001647           JUNCTION        6.65          0.803        0.097
  YSB1154              JUNCTION        1.57          0.727        0.673
  YSB6556              JUNCTION        1.01          0.609        0.491
  YSB1174              JUNCTION        1.33          0.667        0.583
  YSB1171              JUNCTION        1.58          0.718        0.382
  YS02006553           JUNCTION        4.34          1.118        0.072
  YS02006561           JUNCTION        3.62          0.747        0.403
  YS02006556           JUNCTION        4.09          1.266        0.084
  YS02006558           JUNCTION        4.06          1.371        0.029
  YS02001783           JUNCTION        4.12          1.262        0.338
  YS02001784           JUNCTION        4.18          1.294        0.196
  YS02001786           JUNCTION        4.09          1.261        0.169
  YS02001788           JUNCTION        4.02          1.103        0.377
  YS02001790           JUNCTION        5.57          1.157        0.000
  YS02001791           JUNCTION        5.71          1.184        0.736
  YS02001793           JUNCTION        5.90          1.017        1.583
  
  
  *********************
  Node Flooding Summary
  *********************
  
  Flooding refers to all water that overflows a node, whether it ponds or not.
  --------------------------------------------------------------------------
                                                             Total   Maximum
                                 Maximum   Time of Max       Flood    Ponded
                        Hours       Rate    Occurrence      Volume     Depth
  Node                 Flooded       LPS   days hr:min    10^6 ltr    Meters
  --------------------------------------------------------------------------
  WS02006256              6.88    292.87      0  00:00       0.893     0.000
  HS02004901              0.04     37.08      0  03:01       0.002     0.000
  YS02001748              0.36    493.00      0  03:01       0.306     0.000
  YS02001751              0.01      0.42      0  03:02       0.000     0.000
  YS02001762              0.07      1.45      0  03:03       0.000     0.000
  YS02001770              2.41   3013.95      0  03:01      11.992     0.000
  YS02001779              5.31    851.49      0  02:55      10.825     0.000
  YS02001882              0.01      0.53      0  02:53       0.000     0.000
  YS02001884              0.01      0.90      0  02:55       0.000     0.000
  YS02001759              0.71    955.41      0  03:01       1.118     0.000
  YS02001887              0.97   1308.77      0  03:01       2.070     0.000
  YS02001890              2.48   1536.93      0  02:53       9.178     0.000
  YS02001907              3.35   4595.89      0  03:01      27.097     0.000
  YS02001915              1.24   1570.21      0  03:01       3.515     0.000
  YS02001918              0.47    317.92      0  03:01       0.253     0.000
  YS02001619              1.58   1476.97      0  03:01       3.652     0.000
  YS02001629              1.82    686.87      0  02:52       2.892     0.000
  YS02001644              6.62   4525.25      0  03:01      39.268     0.000
  YS02001655              0.28    302.86      0  03:01       0.178     0.000
  YS02001929              0.01    119.61      0  01:27       0.000     0.000
  YS02001658              0.06     51.79      0  03:01       0.008     0.000
  YS02001664              0.03     44.49      0  03:01       0.002     0.000
  YS02001622              0.01    170.71      0  01:21       0.001     0.000
  YS02001633              0.62    779.01      0  03:01       0.806     0.000
  YS02001649              2.68   2390.16      0  02:53      12.374     0.000
  YS02001757              2.17   3023.33      0  03:02      13.565     0.000
  YS02001625              4.34   1505.30      0  02:52      14.347     0.000
  YS02001790              0.01    144.20      0  01:28       0.000     0.000
  JK-storage              5.25    810.55      0  03:01      10.114     0.000
  XR-storage              6.60   6545.07      0  03:01      50.373     0.000
  
  
  **********************
  Storage Volume Summary
  **********************
  
  --------------------------------------------------------------------------------------------------
                         Average     Avg  Evap Exfil       Maximum     Max    Time of Max    Maximum
                          Volume    Pcnt  Pcnt  Pcnt        Volume    Pcnt     Occurrence    Outflow
  Storage Unit           1000 m3    Full  Loss  Loss       1000 m3    Full    days hr:min        LPS
  --------------------------------------------------------------------------------------------------
  JK-storage               0.252      86     0     0         0.291     100       0  01:29     300.00
  CC-storage               3.310      21     0     0         4.162      27       0  02:09     219.80
  XR-storage               0.899      97     0     0         0.926     100       0  01:23     190.00
  
  
  ***********************
  Outfall Loading Summary
  ***********************
  
  ---------------------------------------------------------------------------------------------------------------------------------
                         Flow       Avg       Max       Total         Total         Total         Total         Total         Total
                         Freq      Flow      Flow      Volume           COD            SS            TN            TP         NH4-N
  Outfall Node           Pcnt       LPS       LPS    10^6 ltr            kg            kg            kg            kg            kg
  ---------------------------------------------------------------------------------------------------------------------------------
  WSC                   99.97    338.52    946.48       7.315       969.504      1770.356        35.997         3.529        19.902
  3                     99.97    488.35   1360.97      11.226      1144.952      2098.144        31.147         2.466        15.877
  4                     99.96    134.80    911.71       2.810       327.734       614.488         9.003         0.694         4.570
  5                     99.99    266.99    458.53       7.076       792.956      1380.325        45.260         5.063        26.709
  ---------------------------------------------------------------------------------------------------------------------------------
  System                99.97   1228.65   3667.36      28.427      3235.146      5863.312       121.407        11.752        67.058
  
  
  ********************
  Link Flow Summary
  ********************
  
  -----------------------------------------------------------------------------
                                 Maximum  Time of Max   Maximum    Max/    Max/
                                  |Flow|   Occurrence   |Veloc|    Full    Full
  Link                 Type          LPS  days hr:min     m/sec    Flow   Depth
  -----------------------------------------------------------------------------
  WS02003066WSF200     CONDUIT   1190.68     0  03:01      3.52    0.20    0.34
  WS02006287WS02006284 CONDUIT   1986.23     0  03:01      3.06    0.92    1.00
  WS02006284WS02006280 CONDUIT   1986.23     0  03:01      3.31    0.83    1.00
  WS02006280WS02006229 CONDUIT   1985.98     0  03:01      5.13    0.42    1.00
  WS02006229WS02006228 CONDUIT   1086.25     0  03:01      2.16    3.60    1.00
  WS02006256WS02006235 CONDUIT    289.81     0  03:22      4.46    3.07    1.00
  WS02006253WS02006251 CONDUIT   1141.00     0  03:01      3.01    3.42    0.96
  WS02006252WS02006251 CONDUIT      0.00     0  00:00      0.00    0.00    0.00
  WS02006251WS02006249 CONDUIT    229.16     0  03:01      0.94    0.66    0.61
  WS02006249WS02006248 CONDUIT    227.27     0  03:01      1.01    1.24    0.57
  WS02006248WS02006247 CONDUIT    226.32     0  03:02      0.97    0.49    0.59
  WS02006247WS02006245 CONDUIT    225.04     0  03:02      0.92    1.78    0.61
  WS02006245WS02006243 CONDUIT    224.44     0  03:02      0.94    0.66    0.60
  WS02006243WS02006242 CONDUIT    224.47     0  03:03      0.81    0.48    0.68
  WS02006242WS02006240 CONDUIT    225.34     0  03:03      0.75    0.89    0.73
  WS02006240WS02006239 CONDUIT    225.81     0  03:03      0.79    0.71    0.69
  WS02006239WS02006238 CONDUIT    226.64     0  03:04      0.71    0.73    0.78
  WS02006238WS02006235 CONDUIT    227.45     0  03:04      1.14    0.51    0.81
  WS02006235WS02006234 CONDUIT    910.70     0  03:01      2.45    9.61    0.92
  WS02006234WS02006232 CONDUIT    910.60     0  03:01      2.37    1.84    1.00
  WS02006232WS02006231 CONDUIT    910.54     0  03:01      2.37    1.91    1.00
  WS02006231WS02006230 CONDUIT    910.49     0  03:01      2.37   13.81    1.00
  WS02006230WS02006229 CONDUIT    900.15     0  03:01      2.34   20.03    1.00
  WS02006228WS02006109 CONDUIT   1086.25     0  03:01      2.16    4.75    1.00
  WS02006116WS02004401 CONDUIT   1191.49     0  03:01      1.52    1.64    1.00
  WS02006115WS02006116 CONDUIT   1191.51     0  03:01      1.52    1.53    1.00
  WS02006113WS02006111 CONDUIT   1088.12     0  03:01      2.59    1.30    1.00
  WS02006112WS02006115 CONDUIT   1191.56     0  03:01      1.52    0.70    1.00
  WS02006111WS02006112 CONDUIT   1088.66     0  03:01      2.17    0.52    1.00
  WS02006110WS02006113 CONDUIT   1087.78     0  03:01      2.16    0.99    1.00
  WS02006109WS02006110 CONDUIT   1087.97     0  03:01      2.16    2.09    1.00
  WS02004411WS02004412 CONDUIT   1190.63     0  03:01      1.52    1.69    1.00
  WS02004401WS02004402 CONDUIT   1191.44     0  03:01      1.52    1.43    1.00
  WS02004413WS02003067 CONDUIT   1190.28     0  03:01      1.88    0.51    0.75
  WS02004412WS02004413 CONDUIT   1190.33     0  03:01      1.52    0.80    1.00
  WS02004410WS02004411 CONDUIT   1191.07     0  03:01      1.52    1.63    1.00
  WS02004409WS02004410 CONDUIT   1190.33     0  03:01      1.52    1.54    1.00
  WS02004407WS02004409 CONDUIT   1190.42     0  03:01      1.69    0.42    0.87
  WS02004406WS02004407 CONDUIT   1191.85     0  03:01      1.67    0.53    0.87
  WS02004405WS02004406 CONDUIT   1191.73     0  03:01      1.52    2.35    1.00
  WS02004404WS02004405 CONDUIT   1191.64     0  03:01      1.52   11.67    1.00
  WS02004403WS02004404 CONDUIT   1191.42     0  03:01      1.52    0.86    1.00
  WS02004402WS02004403 CONDUIT   1191.46     0  03:01      1.52    1.71    1.00
  WS02004139WS02001211 CONDUIT    268.28     0  03:03      1.10    0.34    0.27
  WS02004138WS02004139 CONDUIT    191.48     0  00:01      2.95    0.04    0.18
  WS02003067WS02003066 CONDUIT   1190.58     0  03:01      1.94    0.38    0.53
  WS02001213WS02003059 CONDUIT    261.49     0  03:02      0.44    0.43    0.70
  WS02001212WS02001213 CONDUIT    261.29     0  03:03      1.31    0.40    0.33
  WS02001211WS02001212 CONDUIT    261.07     0  03:03      0.92    0.20    0.39
  WS02003072WS02003073 CONDUIT    945.01     0  03:03      1.73    2.04    0.49
  WS02003069WS02003072 CONDUIT    945.28     0  03:02      1.63    0.46    0.51
  WS02003060WS02003069 CONDUIT    945.29     0  03:02      1.87    0.37    0.46
  WS02003059WS02003060 CONDUIT    261.91     0  03:02      0.82    0.17    0.64
  HS02004901HS02004770 CONDUIT    125.01     0  02:58      0.18    0.47    1.00
  HS02004876HS02004881 CONDUIT   1163.59     0  03:02      3.15   12.38    0.54
  HS02004870HS02004876 CONDUIT   1014.61     0  03:01      2.14    0.67    0.71
  HS02004842HS02004848 CONDUIT    535.06     0  03:01      0.86    0.31    0.89
  HS02004837HS02004842 CONDUIT    534.92     0  03:01      0.80    0.32    0.95
  HS02004830HS02004837 CONDUIT    394.25     0  03:01      0.69    0.39    0.95
  HS02004824HS02004830 CONDUIT    394.16     0  03:01      0.67    0.52    1.00
  HS02004817HS02004824 CONDUIT    290.34     0  03:08      0.57    0.13    1.00
  HS02004770HS02004777 CONDUIT    682.80     0  02:59      0.98    1.25    1.00
  HS02004799HS02004480 CONDUIT   1732.97     0  03:01      2.48    2.19    1.00
  HS02004792HS02004799 CONDUIT   1613.12     0  03:00      2.30    0.99    1.00
  HS02004788HS02004792 CONDUIT    887.02     0  02:59      1.52    0.59    1.00
  HS02004785HS02004788 CONDUIT    682.36     0  02:59      1.44    5.14    1.00
  HS02004777HS02004785 CONDUIT    682.59     0  02:59      0.98    0.84    1.00
  HS02004480HS02004478 CONDUIT   1985.46     0  03:01      2.84    8.36    1.00
  HS02004479HS02004480 CONDUIT    253.85     0  03:01      0.53    0.25    1.00
  HS02004862HS02004870 CONDUIT    939.63     0  03:01      1.94    1.01    0.70
  HS02004848HS02004852 CONDUIT    779.57     0  03:01      1.40    0.88    0.80
  HS02004856HS02004862 CONDUIT    835.35     0  03:01      1.62    0.83    0.74
  HS02004852HS02004856 CONDUIT    778.60     0  03:01      1.35    0.89    0.82
  HS02004802HS02004478 CONDUIT    398.11     0  03:07      0.75    0.35    1.00
  HS02004478WS02006287 CONDUIT   1986.49     0  03:01      2.86    0.56    1.00
  HS02004817HS02004807 CONDUIT    290.97     0  03:08      0.47    0.17    1.00
  HS02004807HS02004802 CONDUIT    369.24     0  03:07      0.65    0.71    1.00
  YS02001759YS02001757 CONDUIT   1407.29     0  02:49      1.79    1.00    1.00
  YS02001762YS02001759 CONDUIT    723.11     0  03:03      0.92    0.83    1.00
  YS02001765YS02001762 CONDUIT    722.54     0  03:03      0.92    0.68    1.00
  YS02001770YS02001767 CONDUIT    723.16     0  03:07      0.92    2.86    1.00
  YS02001774YS02001770 CONDUIT    852.25     0  02:53      1.09    0.54    1.00
  YS02001779YS02001774 CONDUIT    851.78     0  02:55      1.08    0.43    1.00
  YS02001649YS02001757 CONDUIT    842.32     0  01:23      1.07    0.51    1.00
  YS02001767YS02001765 CONDUIT    722.68     0  03:03      0.92    0.91    1.00
  YS02006561YS02001783 CONDUIT   1150.07     0  01:28      2.29    0.60    1.00
  YS02001783YS02001784 CONDUIT   1150.12     0  01:28      2.29    1.59    1.00
  YS02001784YS02001785 CONDUIT   1151.17     0  01:28      2.29    2.68    1.00
  YS02001788YS02001790 CONDUIT   1163.94     0  01:28      2.71    0.86    1.00
  YS02001790YS02001791 CONDUIT   1267.21     0  01:27      3.43    1.38    1.00
  YS02001791YS02001793 CONDUIT   1189.56     0  01:27      6.51    0.51    1.00
  YS02001910YS02001907 CONDUIT   1993.02     0  03:03      2.54    1.12    1.00
  YS02001786YS02001788 CONDUIT   1152.20     0  01:28      2.46    2.22    1.00
  YS02001915YS02001910 CONDUIT   1993.18     0  03:03      2.54    0.99    1.00
  YS02001918YS02001915 CONDUIT   1221.69     0  03:10      1.56    0.67    1.00
  YS02001923YS02001920 CONDUIT   1536.45     0  03:01      1.96    0.69    1.00
  YS02001926YS02001923 CONDUIT   1535.90     0  03:01      1.96    2.19    1.00
  YS02001929YS02001926 CONDUIT   1535.72     0  03:01      1.96    0.73    1.00
  YS02001920YS02001918 CONDUIT   1539.96     0  03:01      1.96    1.49    1.00
  YS02001629YS02163301 CONDUIT   1139.08     0  02:52      1.45    1.40    1.00
  YS02001619YS02001622 CONDUIT   1054.04     0  02:54      1.34    1.55    1.00
  YS02001622YS02001625 CONDUIT   1053.77     0  02:52      1.34    0.56    1.00
  YS02001625YS02001629 CONDUIT    451.78     0  02:45      0.58    0.21    1.00
  YS02163301YS02001633 CONDUIT   1138.99     0  02:55      1.45    1.07    1.00
  YS02163601YS02164001 CONDUIT    906.27     0  03:08      1.15    0.80    1.00
  YS02164001YS02001641 CONDUIT    906.43     0  03:07      1.15    1.24    1.00
  YS02001641YS02001644 CONDUIT    906.00     0  03:08      1.15    2.93    1.00
  YS02001647YS02001649 CONDUIT    846.70     0  03:11      1.08    0.45    1.00
  YS02006553YS02006556 CONDUIT   2087.86     0  03:01      2.66    1.79    1.00
  YS02006556YS02006558 CONDUIT   2087.29     0  03:01      2.66    1.65    1.00
  YSB6556YSB1171       CONDUIT    142.00     0  03:01      0.37    0.15    1.00
  YS02001907YS02006553 CONDUIT   2087.66     0  03:01      2.32    2.46    1.00
  YS02006558YS02006561 CONDUIT   1158.74     0  01:26      4.10    2.56    1.00
  YS02001633YS02163601 CONDUIT    905.78     0  03:07      1.15    0.95    1.00
  YS02001644YS02001647 CONDUIT    846.70     0  03:11      1.08    0.50    1.00
  YS02001745YS02001748 CONDUIT   2846.45     0  03:01      3.62    1.10    1.00
  YS02001748YS02001751 CONDUIT   2354.35     0  02:53      3.00    1.19    1.00
  YS02001751YS02001754 CONDUIT   2354.91     0  02:51      3.00    1.14    1.00
  YS02001754YS02001757 CONDUIT   2354.69     0  02:53      3.00    0.95    1.00
  YS02001882YS02001884 CONDUIT     44.65     0  01:23      0.28    0.05    1.00
  YS02001884YS02001887 CONDUIT     67.02     0  01:22      0.21    0.09    1.00
  YS02001890YS02001895 CONDUIT    617.62     0  01:26      0.79    0.29    1.00
  YS02001895YS02001898 CONDUIT    617.52     0  01:26      0.79    1.07    1.00
  YS02001898YS02001901 CONDUIT    617.51     0  01:26      0.79    0.40    1.00
  YS02001901YS02001904 CONDUIT    616.51     0  01:26      0.78    0.96    1.00
  YS02001904YS02001907 CONDUIT    614.44     0  01:26      0.78    0.22    1.00
  YS02001887YS02001890 CONDUIT   2052.03     0  02:48      2.61    3.51    1.00
  YS02001652YS02001649 CONDUIT   2429.42     0  02:53      3.09    1.20    1.00
  YS02001655YS02001652 CONDUIT   2429.39     0  02:52      3.09    1.18    1.00
  YS02001658YS02001655 CONDUIT   2731.29     0  03:01      3.48    1.16    1.00
  YS02001661YS02001658 CONDUIT   2783.08     0  03:01      3.54    1.09    1.00
  YS02001664YS02001661 CONDUIT   2783.08     0  03:01      3.54    0.87    1.00
  YSB1154YSB6556       CONDUIT    142.12     0  03:01      0.37    0.26    1.00
  YSB1174YSB1171       CONDUIT    111.72     0  03:01      0.29    0.17    1.00
  YSB1171HS02004479    CONDUIT    253.57     0  03:01      0.54    0.17    1.00
  HS02004881HS02006253 CONDUIT   1196.16     0  03:03      3.05    0.23    0.64
  YS02001793JiankangQianchi CONDUIT   1122.67     0  01:26     13.01    0.09    1.00
  YS02001757CaochengTiaoxuchi CONDUIT   2220.04     0  01:35      3.82    0.98    1.00
  WSF200WS02003060     CONDUIT   1190.83     0  03:02      2.83    0.26    0.40
  1                    CONDUIT    946.48     0  03:03      3.28    0.33    0.40
  CC-Pump-1            PUMP         0.00     0  00:00              0.00
  CC-Pump-2            PUMP         0.00     0  00:00              0.00
  JK-Pump-1            PUMP       300.00     0  00:00              1.00
  JK-Pump-2            PUMP         0.00     0  00:00              0.00
  XR-Pump-1            PUMP        95.00     0  00:00              1.00
  XR-Pump-2            PUMP         0.00     0  00:00              0.00
  XR-Pump-3            PUMP         0.00     0  00:00              0.00
  XR-Pump-4            PUMP        95.00     0  00:00              1.00
  3                    WEIR       911.71     0  03:01                      0.42
  5                    WEIR      1360.97     0  03:01                      0.55
  6                    WEIR       458.53     0  03:04                      0.27
  
  
  ***************************
  Flow Classification Summary
  ***************************
  
  -------------------------------------------------------------------------------------
                      Adjusted    ---------- Fraction of Time in Flow Class ---------- 
                       /Actual         Up    Down  Sub   Sup   Up    Down  Norm  Inlet 
  Conduit               Length    Dry  Dry   Dry   Crit  Crit  Crit  Crit  Ltd   Ctrl  
  -------------------------------------------------------------------------------------
  WS02003066WSF200        1.00   0.11  0.00  0.00  0.00  0.89  0.00  0.00  0.59  0.00
  WS02006287WS02006284    1.00   0.05  0.01  0.00  0.42  0.32  0.00  0.19  0.61  0.00
  WS02006284WS02006280    1.00   0.06  0.00  0.00  0.08  0.03  0.00  0.82  0.00  0.00
  WS02006280WS02006229    1.00   0.07  0.00  0.00  0.14  0.09  0.00  0.70  0.00  0.00
  WS02006229WS02006228    1.00   0.00  0.00  0.00  0.99  0.00  0.00  0.01  0.00  0.00
  WS02006256WS02006235    1.00   0.00  0.00  0.00  0.43  0.57  0.00  0.00  0.01  0.00
  WS02006253WS02006251    1.00   0.03  0.03  0.00  0.00  0.00  0.95  0.00  0.00  0.00
  WS02006252WS02006251    1.00   1.00  0.00  0.00  0.00  0.00  0.00  0.00  0.00  0.00
  WS02006251WS02006249    1.00   0.00  0.00  0.00  1.00  0.00  0.00  0.00  0.76  0.00
  WS02006249WS02006248    1.00   0.00  0.06  0.00  0.28  0.00  0.66  0.00  0.00  0.00
  WS02006248WS02006247    1.00   0.07  0.00  0.00  0.85  0.00  0.00  0.09  0.27  0.00
  WS02006247WS02006245    1.00   0.07  0.00  0.00  0.76  0.00  0.00  0.18  0.00  0.00
  WS02006245WS02006243    1.00   0.07  0.00  0.00  0.54  0.00  0.00  0.39  0.00  0.00
  WS02006243WS02006242    1.00   0.01  0.06  0.00  0.92  0.00  0.00  0.01  0.64  0.00
  WS02006242WS02006240    1.00   0.00  0.00  0.00  0.97  0.00  0.02  0.00  0.01  0.00
  WS02006240WS02006239    1.00   0.00  0.00  0.00  0.93  0.00  0.00  0.07  0.00  0.00
  WS02006239WS02006238    1.00   0.00  0.00  0.00  1.00  0.00  0.00  0.00  0.03  0.00
  WS02006238WS02006235    1.00   0.00  0.00  0.00  1.00  0.00  0.00  0.00  0.00  0.00
  WS02006235WS02006234    1.00   0.05  0.00  0.00  0.55  0.00  0.01  0.40  0.00  0.00
  WS02006234WS02006232    1.00   0.00  0.00  0.00  1.00  0.00  0.00  0.00  0.07  0.00
  WS02006232WS02006231    1.00   0.00  0.00  0.00  0.99  0.00  0.00  0.00  0.00  0.00
  WS02006231WS02006230    1.00   0.00  0.00  0.00  0.48  0.00  0.51  0.00  0.00  0.00
  WS02006230WS02006229    1.00   0.00  0.00  0.00  0.98  0.00  0.00  0.02  0.03  0.00
  WS02006228WS02006109    1.00   0.00  0.00  0.00  1.00  0.00  0.00  0.00  0.00  0.00
  WS02006116WS02004401    1.00   0.04  0.00  0.00  0.96  0.00  0.00  0.00  0.00  0.00
  WS02006115WS02006116    1.00   0.04  0.00  0.00  0.92  0.00  0.00  0.04  0.00  0.00
  WS02006113WS02006111    1.00   0.02  0.00  0.00  0.31  0.67  0.00  0.00  0.05  0.00
  WS02006112WS02006115    1.00   0.02  0.01  0.00  0.96  0.00  0.00  0.00  0.00  0.00
  WS02006111WS02006112    1.00   0.02  0.00  0.00  0.97  0.00  0.00  0.00  0.72  0.00
  WS02006110WS02006113    1.00   0.01  0.01  0.00  0.98  0.00  0.00  0.00  0.00  0.00
  WS02006109WS02006110    1.00   0.00  0.01  0.00  0.98  0.00  0.01  0.00  0.00  0.00
  WS02004411WS02004412    1.00   0.09  0.00  0.00  0.91  0.00  0.00  0.00  0.00  0.00
  WS02004401WS02004402    1.00   0.04  0.00  0.00  0.96  0.00  0.00  0.00  0.04  0.00
  WS02004413WS02003067    1.00   0.10  0.01  0.00  0.00  0.00  0.89  0.00  0.00  0.00
  WS02004412WS02004413    1.00   0.09  0.00  0.00  0.90  0.00  0.00  0.00  0.00  0.00
  WS02004410WS02004411    1.00   0.09  0.00  0.00  0.91  0.00  0.00  0.00  0.00  0.00
  WS02004409WS02004410    1.00   0.09  0.00  0.00  0.91  0.00  0.00  0.00  0.00  0.00
  WS02004407WS02004409    1.00   0.09  0.00  0.00  0.89  0.02  0.00  0.00  0.71  0.00
  WS02004406WS02004407    1.00   0.00  0.09  0.00  0.91  0.00  0.00  0.00  0.00  0.00
  WS02004405WS02004406    1.00   0.00  0.00  0.00  1.00  0.00  0.00  0.00  0.04  0.00
  WS02004404WS02004405    1.00   0.00  0.00  0.00  1.00  0.00  0.00  0.00  0.00  0.00
  WS02004403WS02004404    1.00   0.00  0.04  0.00  0.96  0.00  0.00  0.00  0.04  0.00
  WS02004402WS02004403    1.00   0.04  0.00  0.00  0.96  0.00  0.00  0.00  0.00  0.00
  WS02004139WS02001211    1.00   0.00  0.00  0.00  1.00  0.00  0.00  0.00  0.00  0.00
  WS02004138WS02004139    1.00   0.00  0.00  0.00  0.00  0.36  0.00  0.64  0.24  0.00
  WS02003067WS02003066    1.00   0.11  0.00  0.00  0.89  0.00  0.00  0.00  0.00  0.00
  WS02001213WS02003059    1.00   0.00  0.00  0.00  0.99  0.00  0.00  0.00  0.00  0.00
  WS02001212WS02001213    1.00   0.01  0.44  0.00  0.55  0.01  0.00  0.00  0.42  0.00
  WS02001211WS02001212    1.00   0.00  0.01  0.00  0.99  0.00  0.00  0.00  0.60  0.00
  WS02003072WS02003073    1.00   0.00  0.00  0.00  0.00  0.00  0.00  1.00  0.00  0.00
  WS02003069WS02003072    1.00   0.00  0.00  0.00  1.00  0.00  0.00  0.00  0.73  0.00
  WS02003060WS02003069    1.00   0.00  0.00  0.00  0.98  0.02  0.00  0.00  0.72  0.00
  WS02003059WS02003060    1.00   0.00  0.00  0.00  1.00  0.00  0.00  0.00  0.08  0.00
  HS02004901HS02004770    1.00   0.06  0.00  0.00  0.94  0.00  0.00  0.00  0.00  0.00
  HS02004876HS02004881    1.00   0.01  0.00  0.00  0.55  0.44  0.00  0.00  0.00  0.00
  HS02004870HS02004876    1.00   0.00  0.00  0.00  0.99  0.00  0.00  0.00  0.83  0.00
  HS02004842HS02004848    1.00   0.00  0.06  0.00  0.94  0.00  0.00  0.00  0.50  0.00
  HS02004837HS02004842    1.00   0.00  0.00  0.00  1.00  0.00  0.00  0.00  0.11  0.00
  HS02004830HS02004837    1.00   0.00  0.00  0.00  1.00  0.00  0.00  0.00  0.80  0.00
  HS02004824HS02004830    1.00   0.00  0.00  0.00  1.00  0.00  0.00  0.00  0.01  0.00
  HS02004817HS02004824    1.00   0.00  0.00  0.00  1.00  0.00  0.00  0.00  0.74  0.00
  HS02004770HS02004777    1.00   0.00  0.06  0.00  0.94  0.00  0.00  0.00  0.00  0.00
  HS02004799HS02004480    1.00   0.00  0.02  0.00  0.93  0.00  0.04  0.00  0.00  0.00
  HS02004792HS02004799    1.00   0.00  0.00  0.00  0.99  0.01  0.00  0.00  0.77  0.00
  HS02004788HS02004792    1.00   0.00  0.00  0.00  0.99  0.01  0.00  0.00  0.91  0.00
  HS02004785HS02004788    1.00   0.00  0.00  0.00  1.00  0.00  0.00  0.00  0.00  0.00
  HS02004777HS02004785    1.00   0.00  0.00  0.00  1.00  0.00  0.00  0.00  0.10  0.00
  HS02004480HS02004478    1.00   0.06  0.00  0.00  0.47  0.00  0.00  0.47  0.00  0.00
  HS02004479HS02004480    1.00   0.02  0.00  0.00  0.98  0.00  0.00  0.00  0.09  0.00
  HS02004862HS02004870    1.00   0.00  0.00  0.00  1.00  0.00  0.00  0.00  0.01  0.00
  HS02004848HS02004852    1.00   0.06  0.00  0.00  0.94  0.00  0.00  0.00  0.69  0.00
  HS02004856HS02004862    1.00   0.00  0.07  0.00  0.93  0.00  0.00  0.00  0.72  0.00
  HS02004852HS02004856    1.00   0.06  0.00  0.00  0.94  0.00  0.00  0.00  0.60  0.00
  HS02004802HS02004478    1.00   0.06  0.00  0.00  0.94  0.00  0.00  0.00  0.01  0.00
  HS02004478WS02006287    1.00   0.07  0.00  0.00  0.51  0.43  0.00  0.00  0.55  0.00
  HS02004817HS02004807    1.00   0.00  0.06  0.00  0.94  0.00  0.00  0.00  0.01  0.00
  HS02004807HS02004802    1.00   0.06  0.00  0.00  0.94  0.00  0.00  0.00  0.00  0.00
  YS02001759YS02001757    1.00   0.00  0.00  0.00  1.00  0.00  0.00  0.00  0.14  0.00
  YS02001762YS02001759    1.00   0.00  0.00  0.00  1.00  0.00  0.00  0.00  0.01  0.00
  YS02001765YS02001762    1.00   0.00  0.00  0.00  1.00  0.00  0.00  0.00  0.12  0.00
  YS02001770YS02001767    1.00   0.00  0.00  0.00  1.00  0.00  0.00  0.00  0.00  0.00
  YS02001774YS02001770    1.00   0.00  0.06  0.00  0.94  0.00  0.00  0.00  0.01  0.00
  YS02001779YS02001774    1.00   0.00  0.00  0.00  1.00  0.00  0.00  0.00  0.14  0.00
  YS02001649YS02001757    1.00   0.00  0.00  0.00  1.00  0.00  0.00  0.00  0.14  0.00
  YS02001767YS02001765    1.00   0.00  0.00  0.00  1.00  0.00  0.00  0.00  0.00  0.00
  YS02006561YS02001783    1.00   0.07  0.00  0.00  0.81  0.12  0.00  0.00  0.31  0.00
  YS02001783YS02001784    1.00   0.00  0.07  0.00  0.93  0.00  0.00  0.00  0.00  0.00
  YS02001784YS02001785    1.00   0.00  0.00  0.00  1.00  0.00  0.00  0.00  0.14  0.00
  YS02001788YS02001790    1.00   0.00  0.00  0.00  0.89  0.11  0.00  0.00  0.20  0.00
  YS02001790YS02001791    1.00   0.00  0.00  0.00  0.83  0.17  0.00  0.00  0.09  0.00
  YS02001791YS02001793    1.00   0.00  0.00  0.00  0.83  0.17  0.00  0.00  0.02  0.00
  YS02001910YS02001907    1.00   0.00  0.00  0.00  0.98  0.00  0.00  0.02  0.11  0.00
  YS02001786YS02001788    1.00   0.00  0.00  0.00  0.89  0.11  0.00  0.00  0.00  0.00
  YS02001915YS02001910    1.00   0.00  0.00  0.00  0.99  0.01  0.00  0.00  0.11  0.00
  YS02001918YS02001915    1.00   0.00  0.00  0.00  0.99  0.01  0.00  0.00  0.35  0.00
  YS02001923YS02001920    1.00   0.00  0.00  0.00  1.00  0.00  0.00  0.00  0.50  0.00
  YS02001926YS02001923    1.00   0.00  0.04  0.00  0.59  0.00  0.37  0.00  0.00  0.00
  YS02001929YS02001926    1.00   0.00  0.06  0.00  0.94  0.00  0.00  0.00  0.42  0.00
  YS02001920YS02001918    1.00   0.00  0.00  0.00  1.00  0.00  0.00  0.00  0.00  0.00
  YS02001629YS02163301    1.00   0.06  0.00  0.00  0.93  0.00  0.00  0.00  0.00  0.00
  YS02001619YS02001622    1.00   0.06  0.00  0.00  0.94  0.00  0.00  0.00  0.00  0.00
  YS02001622YS02001625    1.00   0.06  0.00  0.00  0.94  0.00  0.00  0.00  0.01  0.00
  YS02001625YS02001629    1.00   0.06  0.01  0.00  0.92  0.00  0.01  0.00  0.00  0.00
  YS02163301YS02001633    1.00   0.00  0.06  0.00  0.94  0.00  0.00  0.00  0.00  0.00
  YS02163601YS02164001    1.00   0.00  0.04  0.00  0.96  0.00  0.00  0.00  0.00  0.00
  YS02164001YS02001641    1.00   0.01  0.04  0.00  0.96  0.00  0.00  0.00  0.05  0.00
  YS02001641YS02001644    1.00   0.00  0.00  0.00  1.00  0.00  0.00  0.00  0.00  0.00
  YS02001647YS02001649    1.00   0.00  0.07  0.00  0.93  0.00  0.00  0.00  0.01  0.00
  YS02006553YS02006556    1.00   0.01  0.00  0.00  0.99  0.00  0.00  0.00  0.03  0.00
  YS02006556YS02006558    1.00   0.00  0.00  0.00  1.00  0.00  0.00  0.00  0.00  0.00
  YSB6556YSB1171          1.00   0.02  0.04  0.00  0.94  0.00  0.00  0.00  0.00  0.00
  YS02001907YS02006553    1.00   0.00  0.01  0.00  0.98  0.00  0.00  0.00  0.00  0.00
  YS02006558YS02006561    1.00   0.07  0.00  0.00  0.61  0.32  0.00  0.00  0.27  0.00
  YS02001633YS02163601    1.00   0.00  0.01  0.00  0.99  0.00  0.00  0.00  0.13  0.00
  YS02001644YS02001647    1.00   0.00  0.07  0.00  0.93  0.00  0.00  0.00  0.00  0.00
  YS02001745YS02001748    1.00   0.00  0.00  0.00  0.90  0.00  0.00  0.09  0.00  0.00
  YS02001748YS02001751    1.00   0.00  0.00  0.00  0.97  0.03  0.00  0.00  0.13  0.00
  YS02001751YS02001754    1.00   0.00  0.00  0.00  0.92  0.00  0.00  0.07  0.01  0.00
[...]
  YS02001790YS02001791        5.57      5.57      5.71      3.50         3.41
  YS02001791YS02001793        5.71      5.71      5.97      0.01         0.01
  YS02001910YS02001907        3.94      3.94      4.28      1.43         1.43
  YS02001786YS02001788        4.02      4.09      4.02      4.37         4.02
  YS02001915YS02001910        3.76      3.76      3.94      0.01         0.01
  YS02001918YS02001915        3.53      3.53      3.76      0.01         0.01
  YS02001923YS02001920        3.38      3.38      3.57      0.01         0.01
  YS02001926YS02001923        2.13      2.13      2.28      1.57         0.01
  YS02001929YS02001926        1.62      1.62      2.28      0.01         0.01
  YS02001920YS02001918        3.53      3.53      3.57      0.80         0.01
  YS02001629YS02163301        6.66      6.66      6.66      1.12         0.01
  YS02001619YS02001622        6.65      6.65      6.65      2.24         2.26
  YS02001622YS02001625        6.65      6.65      6.65      0.01         0.01
  YS02001625YS02001629        6.64      6.64      6.65      0.01         0.01
  YS02163301YS02001633        6.66      6.66      6.67      0.72         0.01
  YS02163601YS02164001        6.67      6.67      6.67      0.01         0.01
  YS02164001YS02001641        6.67      6.67      6.67      1.09         1.09
  YS02001641YS02001644        6.67      6.67      6.67      4.51         4.42
  YS02001647YS02001649        6.65      6.65      6.67      0.01         0.01
  YS02006553YS02006556        4.09      4.09      4.34      0.72         0.72
  YS02006556YS02006558        4.14      4.14      4.38      0.63         0.01
  YSB6556YSB1171              1.01      1.01      2.00      0.01         0.01
  YS02001907YS02006553        4.78      4.78      5.01      1.03         1.03
  YS02006558YS02006561        3.80      4.06      3.80      4.60         3.80
  YS02001633YS02163601        6.67      6.67      6.67      0.01         0.01
  YS02001644YS02001647        6.65      6.65      6.67      0.01         0.01
  YS02001745YS02001748        2.57      2.57      6.63      0.17         0.17
  YS02001748YS02001751        6.63      6.63      6.64      0.68         0.69
  YS02001751YS02001754        6.64      6.64      6.65      0.60         0.60
  YS02001754YS02001757        6.65      6.65      6.69      0.01         0.01
  YS02001882YS02001884        3.75      3.75      3.78      0.01         0.01
  YS02001884YS02001887        3.84      3.84      3.86      0.01         0.01
  YS02001890YS02001895        3.73      3.73      3.94      0.01         0.01
  YS02001895YS02001898        3.72      3.72      3.73      0.03         0.01
  YS02001898YS02001901        3.74      3.74      3.83      0.01         0.01
  YS02001901YS02001904        3.81      3.81      3.83      0.01         0.01
  YS02001904YS02001907        3.81      3.81      4.35      0.01         0.01
  YS02001887YS02001890        3.89      3.89      3.91      2.42         0.01
  YS02001652YS02001649        6.65      6.65      6.67      0.62         0.62
  YS02001655YS02001652        6.64      6.64      6.65      0.58         0.58
  YS02001658YS02001655        6.63      6.63      6.64      0.33         0.33
  YS02001661YS02001658        2.65      2.65      6.63      0.18         0.19
  YS02001664YS02001661        1.29      1.29      3.37      0.01         0.01
  YSB1154YSB6556              1.01      1.01      1.57      0.01         0.01
  YSB1174YSB1171              1.33      1.33      1.90      0.01         0.01
  YSB1171HS02004479           0.46      0.46      1.58      0.01         0.01
  HS02004881HS02006253        0.01      0.01      0.03      0.01         0.01
  YS02001793JiankangQianchi        5.90      5.90      6.73      0.01         0.01
  YS02001757CaochengTiaoxuchi        6.26      6.26      6.69      0.01         0.01
  
  
  ***************
  Pumping Summary
  ***************
  
  ---------------------------------------------------------------------------------------------------------
                                                  Min       Avg       Max     Total     Power    % Time Off
                        Percent   Number of      Flow      Flow      Flow    Volume     Usage    Pump Curve
  Pump                 Utilized   Start-Ups       LPS       LPS       LPS  10^6 ltr     Kw-hr    Low   High
  ---------------------------------------------------------------------------------------------------------
  CC-Pump-1                0.00           0      0.00      0.00      0.00     0.000      0.00    0.0    0.0
  CC-Pump-2                0.00           0      0.00      0.00      0.00     0.000      0.00    0.0    0.0
  JK-Pump-1              100.00           1      0.00    279.78    300.00     7.457     63.88    0.0    0.0
  JK-Pump-2                0.00           0      0.00      0.00      0.00     0.000      0.00    0.0    0.0
  XR-Pump-1              100.00           1      0.00     95.00     95.00     2.736     15.45    0.0    0.0
  XR-Pump-2                0.00           0      0.00      0.00      0.00     0.000      0.00    0.0    0.0
  XR-Pump-3                0.00           0      0.00      0.00      0.00     0.000      0.00    0.0    0.0
  XR-Pump-4              100.00           1      0.00     95.00     95.00     2.736     15.45    0.0    0.0
  
  
  ***************************
  Link Pollutant Load Summary
  ***************************
  
  ------------------------------------------------------------------------------------------
                                 COD            SS            TN            TP         NH4-N
  Link                            kg            kg            kg            kg            kg
  ------------------------------------------------------------------------------------------
  WS02003066WSF200          1040.717      1936.634        29.535         2.501        15.267
  WS02006287WS02006284      1550.478      2895.743        43.003         3.574        22.072
  WS02006284WS02006280      1550.756      2896.014        43.050         3.580        22.102
  WS02006280WS02006229      1551.131      2896.938        43.051         3.580        22.102
  WS02006229WS02006228       968.384      1803.392        27.848         2.364        14.443
  WS02006256WS02006235       494.827       879.141        14.108         1.111         7.291
  WS02006253WS02006251       395.626       740.836        10.853         0.834         5.504
  WS02006252WS02006251         0.000         0.000         0.000         0.000         0.000
  WS02006251WS02006249        69.067       128.630         1.912         0.147         0.971
  WS02006249WS02006248        68.626       127.636         1.905         0.147         0.968
  WS02006248WS02006247        68.831       128.111         1.908         0.147         0.969
  WS02006247WS02006245        68.758       127.950         1.906         0.147         0.968
  WS02006245WS02006243        68.835       128.159         1.906         0.147         0.968
  WS02006243WS02006242        69.258       129.166         1.910         0.147         0.970
  WS02006242WS02006240        69.185       128.981         1.909         0.147         0.969
  WS02006240WS02006239        69.570       129.698         1.918         0.148         0.974
  WS02006239WS02006238        70.386       131.334         1.935         0.149         0.983
  WS02006238WS02006235        70.928       132.267         1.952         0.151         0.992
  WS02006235WS02006234       612.095      1133.529        16.395         1.312         8.296
  WS02006234WS02006232       612.911      1135.253        16.412         1.313         8.304
  WS02006232WS02006231       612.737      1134.612        16.418         1.314         8.308
  WS02006231WS02006230       612.935      1134.929        16.427         1.314         8.312
  WS02006230WS02006229       613.066      1134.742        16.448         1.316         8.324
  WS02006228WS02006109       968.331      1803.687        27.798         2.358        14.410
  WS02006116WS02004401      1047.664      1946.372        30.181         2.578        15.665
  WS02006115WS02006116      1047.754      1946.188        30.234         2.585        15.700
  WS02006113WS02006111       977.302      1819.431        28.523         2.448        14.860
  WS02006112WS02006115      1048.986      1948.556        30.292         2.592        15.734
  WS02006111WS02006112       975.967      1816.485        28.483         2.444        14.838
  WS02006110WS02006113       976.958      1818.439        28.532         2.449        14.867
  WS02006109WS02006110       977.008      1818.021        28.580         2.456        14.898
  WS02004411WS02004412      1043.840      1942.170        29.721         2.523        15.379
  WS02004401WS02004402      1046.614      1944.554        30.112         2.570        15.623
  WS02004413WS02003067      1040.714      1936.159        29.574         2.506        15.292
  WS02004412WS02004413      1043.006      1940.783        29.655         2.515        15.338
  WS02004410WS02004411      1044.061      1942.262        29.764         2.528        15.406
  WS02004409WS02004410      1044.466      1942.873        29.801         2.532        15.429
  WS02004407WS02004409      1044.500      1942.645        29.831         2.536        15.448
  WS02004406WS02004407      1044.264      1941.948        29.841         2.538        15.455
  WS02004405WS02004406      1045.233      1942.970        29.971         2.554        15.537
  WS02004404WS02004405      1045.519      1942.895        30.041         2.562        15.581
  WS02004403WS02004404      1044.925      1941.891        29.977         2.554        15.540
  WS02004402WS02004403      1045.935      1943.642        30.041         2.562        15.579
  WS02004139WS02001211       256.432       468.055        10.861         1.137         6.187
  WS02004138WS02004139       534.634       909.308        34.221         3.904        20.411
  WS02003067WS02003066      1040.818      1936.844        29.539         2.501        15.269
  WS02001213WS02003059       208.770       392.021         6.260         0.562         3.311
  WS02001212WS02001213       205.220       385.874         5.950         0.523         3.117
  WS02001211WS02001212       205.453       386.655         5.960         0.525         3.124
  WS02003072WS02003073       952.566      1739.527        34.765         3.377        19.140
  WS02003069WS02003072       955.493      1745.407        34.913         3.395        19.230
  WS02003060WS02003069       953.567      1742.121        34.751         3.375        19.129
  WS02003059WS02003060       210.280       393.808         6.354         0.571         3.364
  HS02004901HS02004770        81.586       149.739         2.101         0.170         1.048
  HS02004876HS02004881       357.119       669.396         9.869         0.757         5.002
  HS02004870HS02004876       301.818       565.655         8.459         0.649         4.288
  HS02004842HS02004848        67.202       112.711         2.398         0.203         1.283
  HS02004837HS02004842        70.310       115.532         2.891         0.266         1.597
  HS02004830HS02004837       147.248       267.727         6.574         0.689         3.789
  HS02004824HS02004830       146.562       266.746         6.577         0.690         3.794
  HS02004817HS02004824       251.512       483.440         8.909         0.844         4.943
  HS02004770HS02004777       328.429       624.131         8.628         0.643         4.223
  HS02004799HS02004480      1010.039      1876.811        27.093         2.189        13.606
  HS02004792HS02004799       935.640      1734.612        25.245         2.056        12.677
  HS02004788HS02004792       467.082       877.243        13.140         1.060         6.633
  HS02004785HS02004788       329.870       626.466         8.769         0.661         4.311
  HS02004777HS02004785       329.421       625.930         8.706         0.653         4.272
  HS02004480HS02004478      1213.252      2246.570        32.258         2.609        16.242
  HS02004479HS02004480       208.412       379.087         5.476         0.457         2.824
  HS02004862HS02004870       259.683       481.703         7.401         0.579         3.757
  HS02004848HS02004852       172.878       315.108         5.067         0.403         2.587
  HS02004856HS02004862       208.495       384.328         5.967         0.466         3.041
  HS02004852HS02004856       172.936       315.208         5.068         0.403         2.587
  HS02004802HS02004478       338.237       650.634        10.818         0.974         5.873
  HS02004478WS02006287      1550.044      2894.577        43.017         3.576        22.082
  HS02004817HS02004807       250.191       481.064         8.767         0.826         4.854
  HS02004807HS02004802       338.258       650.742        10.840         0.977         5.889
  YS02001759YS02001757      1446.836      2790.009        33.273         2.525        16.688
  YS02001762YS02001759       748.377      1401.490        18.430         1.403         9.320
  YS02001765YS02001762       751.076      1408.420        18.480         1.407         9.345
  YS02001770YS02001767       767.387      1444.730        18.762         1.427         9.482
  YS02001774YS02001770      1091.630      2069.188        27.221         1.973        13.720
  YS02001779YS02001774      1092.536      2071.137        27.295         1.983        13.768
  YS02001649YS02001757      1076.501      2033.980        26.406         1.909        13.240
  YS02001767YS02001765       756.326      1420.575        18.566         1.413         9.386
  YS02006561YS02001783      1649.210      3023.256        43.201         3.295        21.958
  YS02001783YS02001784      1649.280      3023.472        43.198         3.295        21.957
  YS02001784YS02001785      1657.192      3036.372        43.931         3.386        22.414
  YS02001788YS02001790      1658.257      3038.355        44.009         3.396        22.463
  YS02001790YS02001791      1659.710      3040.965        44.114         3.409        22.528
  YS02001791YS02001793      1659.559      3040.703        44.110         3.408        22.525
  YS02001910YS02001907      2430.650      4711.935        58.471         4.253        29.412
  YS02001786YS02001788      1657.677      3037.334        43.962         3.390        22.434
  YS02001915YS02001910      2430.060      4710.657        58.420         4.246        29.380
  YS02001918YS02001915      1529.989      2914.034        36.188         2.852        18.343
  YS02001923YS02001920      1555.044      2970.397        35.252         2.689        17.632
  YS02001926YS02001923      1552.005      2964.865        35.138         2.677        17.567
  YS02001929YS02001926      1549.252      2959.935        35.018         2.664        17.497
  YS02001920YS02001918      1577.052      3006.646        37.236         2.935        18.868
  YS02001629YS02163301      1211.718      2293.857        28.312         2.219        14.152
  YS02001619YS02001622      1134.791      2188.489        26.796         1.941        13.100
  YS02001622YS02001625      1135.816      2190.605        26.803         1.941        13.103
  YS02001625YS02001629       670.976      1260.192        15.789         1.228         7.881
  YS02163301YS02001633      1213.281      2295.782        28.367         2.224        14.182
  YS02163601YS02164001      1243.752      2302.788        29.993         2.346        15.043
  YS02164001YS02001641      1245.497      2306.046        30.009         2.347        15.049
  YS02001641YS02001644      1249.042      2312.638        30.059         2.350        15.072
  YS02001647YS02001649      1128.279      2083.277        28.810         2.152        14.321
  YS02006553YS02006556      1343.661      2433.632        36.193         2.796        18.479
  YS02006556YS02006558      1340.791      2426.165        36.137         2.789        18.447
  YSB6556YSB1171             122.287       222.263         3.163         0.263         1.629
  YS02001907YS02006553      1347.753      2443.943        36.282         2.806        18.530
  YS02006558YS02006561      1648.866      3022.521        43.197         3.295        21.957
  YS02001633YS02163601      1243.594      2302.308        29.961         2.341        15.021
  YS02001644YS02001647      1134.797      2096.494        28.904         2.159        14.365
  YS02001745YS02001748      1884.441      3700.718        44.566         3.110        22.219
  YS02001748YS02001751      1844.528      3624.186        43.602         3.044        21.742
  YS02001751YS02001754      1845.018      3625.401        43.632         3.049        21.761
  YS02001754YS02001757      1847.306      3629.542        43.823         3.073        21.881
  YS02001882YS02001884         4.472         8.176         0.081         0.006         0.040
  YS02001884YS02001887         8.579        15.909         0.156         0.012         0.076
  YS02001890YS02001895       878.603      1625.581        21.318         1.708        10.843
  YS02001895YS02001898       878.678      1625.841        21.314         1.708        10.840
  YS02001898YS02001901       878.495      1625.458        21.310         1.707        10.838
  YS02001901YS02001904       878.787      1625.999        21.340         1.711        10.857
  YS02001904YS02001907       879.275      1626.681        21.405         1.719        10.898
  YS02001887YS02001890      2584.750      4834.710        61.916         4.978        31.413
  YS02001652YS02001649      1832.906      3475.920        44.404         3.431        21.788
  YS02001655YS02001652      1832.978      3475.700        44.419         3.432        21.795
  YS02001658YS02001655      1854.781      3514.456        44.953         3.469        22.049
  YS02001661YS02001658      1855.679      3515.657        44.991         3.472        22.068
  YS02001664YS02001661      1855.597      3515.190        44.999         3.473        22.072
  YSB1154YSB6556             122.138       222.307         3.119         0.257         1.600
  YSB1174YSB1171              84.801       154.787         2.201         0.181         1.127
  YSB1171HS02004479          208.153       378.556         5.481         0.458         2.829
  HS02004881HS02006253       384.465       721.569        10.561         0.808         5.353
  YS02001793JiankangQianchi      1659.795      3041.136        44.116         3.409        22.528
  YS02001757CaochengTiaoxuchi       718.989      1471.088        13.272         0.933         6.397
  WSF200WS02003060          1041.238      1937.979        29.531         2.500        15.263
  1                          969.504      1770.356        35.997         3.529        19.902
  CC-Pump-1                    0.000         0.000         0.000         0.000         0.000
  CC-Pump-2                    0.000         0.000         0.000         0.000         0.000
  JK-Pump-1                  569.152      1014.338        16.140         1.270         8.335
  JK-Pump-2                    0.000         0.000         0.000         0.000         0.000
  XR-Pump-1                  267.586       455.094        17.130         1.954        10.217
  XR-Pump-2                    0.000         0.000         0.000         0.000         0.000
  XR-Pump-3                    0.000         0.000         0.000         0.000         0.000
  XR-Pump-4                  267.586       455.094        17.130         1.954        10.217
  3                          327.734       614.488         9.003         0.694         4.570
  5                         1144.952      2098.144        31.147         2.466        15.877
  6                          792.956      1380.325        45.260         5.063        26.709
  

  Analysis begun on:  Wed Jun 30 21:43:29 2021
  Analysis ended on:  Wed Jun 30 21:43:30 2021
  Total elapsed time: 00:00:01