
  EPA STORM WATER MANAGEMENT MODEL - VERSION 5.1 (Build 5.3.0.dev0)
  --------------------------------------------------------------

  WARNING 04: minimum elevation drop used for Conduit WS02004404WS02004405
  WARNING 03: negative offset ignored for Link YS02001904YS02001907
  
  *********************************************************
  NOTE: The summary statistics displayed in this report are
  based on results found at every computational time step,  
  not just on results from each reporting time step.
  *********************************************************
  
  ****************
  Analysis Options
  ****************
  Flow Units ............... LPS
  Process Models:
    Rainfall/Runoff ........ YES
    RDII ................... NO
    Snowmelt ............... NO
    Groundwater ............ NO
    Flow Routing ........... YES
    Ponding Allowed ........ NO
    Water Quality .......... YES
  Infiltration Method ...... HORTON
  Flow Routing Method ...... DYNWAVE
  Surcharge Method ......... EXTRAN
  Starting Date ............ 08/28/2015 08:00:00
  Ending Date .............. 08/28/2015 16:00:00
  Antecedent Dry Days ...... 8.0
  Report Time Step ......... 00:01:00
  Wet Time Step ............ 00:01:00
  Dry Time Step ............ 00:01:00
  Routing Time Step ........ 5.00 sec
  Variable Time Step ....... YES
  Maximum Trials ........... 8
  Number of Threads ........ 4
  Head Tolerance ........... 0.001500 m
  
  
  **************************        Volume         Depth
  Runoff Quantity Continuity     hectare-m            mm
  **************************     ---------       -------
  Total Precipitation ......        27.779        60.819
  Evaporation Loss .........         0.000         0.000
  Infiltration Loss ........         1.768         3.870
  Surface Runoff ...........        24.134        52.839
  Final Storage ............         1.881         4.118
  Continuity Error (%) .....        -0.012
  
  
  **************************           COD            SS            TN            TP         NH4-N
  Runoff Quality Continuity             kg            kg            kg            kg            kg
  **************************    ----------    ----------    ----------    ----------    ----------
  Initial Buildup ..........     41378.656     70582.865      1804.177       168.684      1032.807
  Surface Buildup ..........        98.667       217.144         3.867         0.324         2.025
  Wet Deposition ...........         0.000         0.000         0.000         0.000         0.000
  Sweeping Removal .........         0.000         0.000         0.000         0.000         0.000
  Infiltration Loss ........       155.921       282.443         4.184         0.326         2.122
  BMP Removal ..............         0.000         0.000         0.000         0.000         0.000
  Surface Runoff ...........     28692.651     54510.107       701.694        53.145       350.255
  Remaining Buildup ........     12625.278     16005.678      1101.923       115.517       682.325
  Continuity Error (%) .....         0.008         0.003         0.013         0.012         0.013
  
  
  **************************        Volume        Volume
  Flow Routing Continuity        hectare-m      10^6 ltr
  **************************     ---------     ---------
  Dry Weather Inflow .......         0.630         6.296
  Wet Weather Inflow .......        24.130       241.305
  Groundwater Inflow .......         0.000         0.000
  RDII Inflow ..............         0.000         0.000
  External Inflow ..........         0.105         1.045
  External Outflow .........         2.674        26.743
  Flooding Loss ............        21.624       216.238
  Evaporation Loss .........         0.000         0.000
  Exfiltration Loss ........         0.000         0.000
  Initial Stored Volume ....         0.076         0.761
  Final Stored Volume ......         0.640         6.402
  Continuity Error (%) .....         0.009
  
  
  **************************           COD            SS            TN            TP         NH4-N
  Quality Routing Continuity            kg            kg            kg            kg            kg
  **************************    ----------    ----------    ----------    ----------    ----------
  Dry Weather Inflow .......      1573.993      2518.389       151.103        18.888        94.440
  Wet Weather Inflow .......     28690.884     54507.025       701.644        53.141       350.230
  Groundwater Inflow .......         0.000         0.000         0.000         0.000         0.000
  RDII Inflow ..............         0.000         0.000         0.000         0.000         0.000
  External Inflow ..........       187.321       299.713        17.983         2.248        11.239
  External Outflow .........      3345.831      6203.768       118.914        11.426        65.347
  Flooding Loss ............     26607.826     50228.399       731.448        60.835       379.086
  Exfiltration Loss ........         0.000         0.000         0.000         0.000         0.000
  Mass Reacted .............         0.000         0.000         0.000         0.000         0.000
  Initial Stored Mass ......         0.000         0.000         0.000         0.000         0.000
  Final Stored Mass ........       487.321       884.878        19.186         1.885        10.775
  Continuity Error (%) .....         0.037         0.014         0.136         0.177         0.154
  
  
  *************************
  Highest Continuity Errors
  *************************
  Node WS02006256 (86.12%)
  Node YS02001884 (6.87%)
  Node HS02004842 (1.90%)
  Node WS02003059 (1.12%)
  
  
  ***************************
  Time-Step Critical Elements
  ***************************
  Link WS02006252WS02006251 (95.70%)
  
  
  ********************************
  Highest Flow Instability Indexes
  ********************************
  Link YS02163601YS02164001 (26)
  Link YS02163301YS02001633 (23)
  Link YS02164001YS02001641 (23)
  Link YS02001629YS02163301 (23)
  Link YS02001619YS02001622 (22)
  
  
  *************************
  Routing Time Step Summary
  *************************
  Minimum Time Step           :     0.02 sec
  Average Time Step           :     0.79 sec
  Maximum Time Step           :     5.00 sec
  Percent in Steady State     :    -0.00
  Average Iterations per Step :     3.39
  Percent Not Converging      :     9.24
  
  
  ***************************
  Subcatchment Runoff Summary
  ***************************
  
  ------------------------------------------------------------------------------------------------------------------------------
                            Total      Total      Total      Total     Imperv       Perv      Total       Total     Peak  Runoff
                           Precip      Runon       Evap      Infil     Runoff     Runoff     Runoff      Runoff   Runoff   Coeff
  Subcatchment                 mm         mm         mm         mm         mm         mm         mm    10^6 ltr      LPS
  ------------------------------------------------------------------------------------------------------------------------------
  sub0                      60.82       0.00       0.00       0.80      56.53       3.46      59.98        0.05    10.50   0.986
  sub1                      60.82       0.00       0.00       1.44      54.04       5.25      59.29        0.39    83.02   0.975
  sub2                      60.82       0.00       0.00       6.74      38.23      15.77      54.00        0.50   106.60   0.888
  sub3                      60.82       0.00       0.00       7.37      38.19      15.13      53.32        1.20   248.78   0.877
  sub4                      60.82       0.00       0.00       1.66      53.86       5.03      58.89        1.23   248.54   0.968
  sub5                      60.82       0.00       0.00       0.87      56.47       3.39      59.86        0.68   142.18   0.984
  sub7                      60.82       0.00       0.00       1.10      55.29       4.38      59.67        0.20    42.90   0.981
  sub8                      60.82       0.00       0.00       1.12      55.28       4.36      59.64        0.38    80.86   0.981
  sub9                      60.82       0.00       0.00       1.12      55.28       4.35      59.63        0.29    60.78   0.980
  sub10                     60.82       0.00       0.00       1.00      55.87       3.87      59.73        0.66   138.70   0.982
  sub11                     60.82       0.00       0.00       0.98      55.89       3.89      59.78        0.69   147.50   0.983
  sub12                     60.82       0.00       0.00       1.59      52.87       6.32      59.19        0.52   111.81   0.973
  sub14                     60.82       0.00       0.00       1.12      55.27       4.35      59.62        0.57   120.17   0.980
  sub15                     60.82       0.00       0.00       4.63      42.51      13.61      56.13        0.97   207.66   0.923
  sub16                     60.82       0.00       0.00       4.73      40.71      15.34      56.06        0.59   128.49   0.922
  sub17                     60.82       0.00       0.00       4.62      41.32      14.85      56.17        0.48   105.20   0.923
  sub22                     60.82       0.00       0.00       7.08      34.63      19.07      53.70        3.39   740.07   0.883
  sub23                     60.82       0.00       0.00       5.73      38.28      16.78      55.05        2.63   572.39   0.905
  sub60                     60.82       0.00       0.00       2.82      50.94       4.48      55.41       16.80  2846.95   0.911
  sub61                     60.82       0.00       0.00       4.00      49.03       6.34      55.38       17.08  3085.21   0.911
  sub62                     60.82       0.00       0.00       1.54      54.08       3.33      57.41       17.65  3143.69   0.944
  sub63                     60.82       0.00       0.00       7.96      42.19       9.68      51.87       15.70  2828.43   0.853
  sub64                     60.82       0.00       0.00       3.83      49.11       5.29      54.39       16.54  2774.44   0.894
  sub65                     60.82       0.00       0.00       3.19      50.16       4.71      54.88       16.88  2822.73   0.902
  sub66                     60.82       0.00       0.00       8.72      41.33       8.47      49.81       15.27  2531.03   0.819
  sub67                     60.82       0.00       0.00       1.40      54.82       3.47      58.29       17.99  3361.28   0.958
  sub68                     60.82       0.00       0.00       2.99      51.00       5.52      56.52       17.38  3195.92   0.929
  sub69                     60.82       0.00       0.00       2.90      50.99       6.23      57.22       13.37  2579.68   0.941
  sub70                     60.82      58.42       0.00      10.22      76.81      27.26     104.07       23.82  3821.74   0.873
  sub71                     60.82       0.00       0.00       1.59      53.69       3.27      56.96       13.45  2341.64   0.937
  sub72                     60.82       0.00       0.00       1.69      50.29       2.57      52.86       10.77  1535.61   0.869
  1                         60.82     101.35       0.00       1.40     103.49      45.46     148.94       35.00  4610.91   0.918
  2                         60.82       0.00       0.00       3.09      15.04      23.51      38.56       15.42  1925.59   0.634
  
  
  ****************************
  Subcatchment Washoff Summary
  ****************************
  
  ------------------------------------------------------------------------------------------
                                 COD            SS            TN            TP         NH4-N
  Subcatchment                    kg            kg            kg            kg            kg
  ------------------------------------------------------------------------------------------
  sub0                        11.538        20.058         0.300         0.027         0.156
  sub1                        55.612       104.459         1.418         0.109         0.719
  sub2                        49.774        95.120         1.297         0.096         0.631
  sub3                       126.707       241.790         3.239         0.242         1.582
  sub4                       141.501       279.085         3.525         0.240         1.769
  sub5                       120.956       219.725         3.092         0.254         1.586
  sub7                        27.220        51.842         0.693         0.051         0.351
  sub8                        41.958        83.529         1.058         0.070         0.531
  sub9                        35.606        69.177         0.901         0.064         0.455
  sub10                      100.836       187.665         2.569         0.201         1.310
  sub11                       97.297       184.006         2.478         0.187         1.259
  sub12                       83.619       152.302         2.160         0.176         1.103
  sub14                       75.720       144.657         1.922         0.141         0.974
  sub15                      124.492       229.721         3.230         0.257         1.610
  sub16                       79.976       146.025         2.086         0.169         1.043
  sub17                       72.487       129.974         1.890         0.159         0.949
  sub22                      467.142       855.349        11.934         0.974         5.936
  sub23                      247.038       474.707         6.533         0.473         3.178
  sub60                     1883.450      3698.357        44.557         3.109        22.215
  sub61                     2248.844      4282.314        53.314         4.062        26.825
  sub62                     2151.104      4178.798        51.777         3.704        25.944
  sub63                     1854.600      3512.888        44.993         3.472        22.070
  sub64                     2515.361      4712.673        58.951         4.694        29.514
  sub65                     2532.233      4765.477        59.444         4.673        29.776
  sub66                     1615.628      3138.517        37.953         2.765        18.579
  sub67                     2924.329      5415.037        71.192         5.728        36.162
  sub68                     2318.000      4421.597        56.160         4.224        28.142
  sub69                     1914.043      3597.637        47.174         3.658        23.743
  sub70                     3407.908      6243.689        96.430         7.525        48.744
  sub71                     1462.997      2918.550        35.184         2.328        17.497
  sub72                     1547.928      2957.238        34.963         2.658        17.464
  1                         3173.911      5844.548        89.650         6.978        44.983
  2                          504.787       994.922        13.230         0.860         5.944
  ------------------------------------------------------------------------------------------
  System                   34014.603     64351.433       845.298        64.329       422.741
  
  
  ******************
  Node Depth Summary
  ******************
  
  ---------------------------------------------------------------------------------
                                 Average  Maximum  Maximum  Time of Max    Reported
                                   Depth    Depth      HGL   Occurrence   Max Depth
  Node                 Type       Meters   Meters   Meters  days hr:min      Meters
  ---------------------------------------------------------------------------------
  WS02001211           JUNCTION     0.29     0.48     5.31     0  03:03        0.48
  WS02001212           JUNCTION     0.08     0.30     5.37     0  03:03        0.30
  WS02001213           JUNCTION     0.39     0.67     5.43     0  03:02        0.67
  WS02003069           JUNCTION     0.25     0.58     5.17     0  03:02        0.58
  WS02003072           JUNCTION     0.31     0.64     5.01     0  03:02        0.64
  WS02003073           JUNCTION     0.18     0.40     4.46     0  03:03        0.40
  WS02003060           JUNCTION     0.23     0.52     5.45     0  03:02        0.52
  WS02003066           JUNCTION     0.20     0.43     5.98     0  03:01        0.43
  WS02003059           JUNCTION     0.47     0.76     5.45     0  03:02        0.76
  WS02003067           JUNCTION     0.49     0.85     6.17     0  03:01        0.85
  WS02004401           JUNCTION     0.66     1.62     7.62     0  03:00        1.62
  WS02004402           JUNCTION     0.69     1.58     7.54     0  03:01        1.58
  WS02004403           JUNCTION     0.70     1.52     7.45     0  03:01        1.52
  WS02004404           JUNCTION     0.76     1.55     7.40     0  03:01        1.54
  WS02004406           JUNCTION     0.75     1.42     7.25     0  03:01        1.41
  WS02004409           JUNCTION     0.43     1.26     7.03     0  03:01        1.26
  WS02004410           JUNCTION     0.45     1.19     6.91     0  03:01        1.19
  WS02004411           JUNCTION     0.46     1.12     6.80     0  03:01        1.12
  WS02004412           JUNCTION     0.48     1.05     6.69     0  03:01        1.05
  WS02004413           JUNCTION     0.62     1.11     6.58     0  03:01        1.11
  WS02004405           JUNCTION     0.76     1.50     7.35     0  03:01        1.50
  WS02006109           JUNCTION     0.80     2.51     9.12     0  03:00        2.51
  WS02006110           JUNCTION     0.76     2.20     8.79     0  03:00        2.20
  WS02006111           JUNCTION     0.33     1.46     8.17     0  03:00        1.46
  WS02006112           JUNCTION     0.85     2.07     7.95     0  03:01        2.07
  WS02006113           JUNCTION     0.38     1.59     8.49     0  03:00        1.59
  WS02006115           JUNCTION     0.57     1.68     7.82     0  03:00        1.68
  WS02006116           JUNCTION     0.65     1.69     7.73     0  03:00        1.69
  WS02006230           JUNCTION     0.71     2.44     9.18     0  03:00        2.44
  WS02006231           JUNCTION     0.36     1.68     8.80     0  03:00        1.68
  WS02006232           JUNCTION     0.39     1.42     8.46     0  03:00        1.42
  WS02006234           JUNCTION     0.22     0.90     8.06     0  03:01        0.90
  WS02006235           JUNCTION     0.14     0.49     7.66     0  03:01        0.49
  WS02006238           JUNCTION     0.21     0.53     7.67     0  03:01        0.53
  WS02006240           JUNCTION     0.19     0.47     7.76     0  03:02        0.47
  WS02006242           JUNCTION     0.25     0.56     7.83     0  03:02        0.56
  WS02006243           JUNCTION     0.16     0.45     7.87     0  03:02        0.45
  WS02006245           JUNCTION     0.18     0.45     7.93     0  03:02        0.45
  WS02006247           JUNCTION     0.20     0.48     7.98     0  03:02        0.48
  WS02006248           JUNCTION     0.16     0.43     8.02     0  03:01        0.43
  WS02006249           JUNCTION     0.20     0.47     8.07     0  03:01        0.47
  WS02006239           JUNCTION     0.20     0.50     7.71     0  03:02        0.50
  WS02006251           JUNCTION     0.18     0.48     8.15     0  03:02        0.47
  WS02006252           JUNCTION     0.34     0.35     8.60     0  01:17        0.35
  WS02006253           JUNCTION     0.29     1.80     9.44     0  03:02        1.06
  WS02006256           JUNCTION     0.36     1.76     8.70     0  01:18        0.72
  WS02004138           JUNCTION     0.14     0.14     7.39     0  00:00        0.14
  WS02004139           JUNCTION     0.18     0.27     5.18     0  03:03        0.27
  WS02004407           JUNCTION     0.20     0.74     7.05     0  03:01        0.74
  WS02006228           JUNCTION     0.83     2.77     9.42     0  03:00        2.77
  WS02006229           JUNCTION     0.82     2.89     9.59     0  03:00        2.89
  WS02006280           JUNCTION     0.23     1.39     9.66     0  03:00        1.39
  WS02006284           JUNCTION     0.53     1.51     9.90     0  03:00        1.51
  WS02006287           JUNCTION     0.26     1.21    10.16     0  03:01        1.21
  WSF200               JUNCTION     0.17     0.44     5.67     0  03:01        0.44
  HS02004901           JUNCTION     0.26     1.42    11.24     0  02:50        1.42
  HS02004881           JUNCTION     0.03     0.23     9.26     0  03:01        0.21
  HS02004876           JUNCTION     0.11     0.57     9.60     0  03:02        0.56
  HS02004870           JUNCTION     0.07     0.46     9.75     0  03:02        0.46
  HS02004862           JUNCTION     0.08     0.52     9.90     0  03:01        0.52
  HS02004856           JUNCTION     0.14     0.59    10.01     0  03:01        0.58
  HS02004852           JUNCTION     0.07     0.57    10.08     0  03:01        0.56
  HS02004848           JUNCTION     0.07     0.55    10.15     0  03:01        0.55
  HS02004842           JUNCTION     0.39     0.93    10.20     0  03:01        0.93
  HS02004837           JUNCTION     0.09     0.63    10.21     0  03:01        0.63
  HS02004830           JUNCTION     0.12     0.76    10.23     0  03:01        0.76
  HS02004824           JUNCTION     0.13     0.85    10.25     0  03:01        0.84
  HS02004817           JUNCTION     0.58     1.40    10.25     0  03:01        1.40
  HS02004807           JUNCTION     0.26     1.08    10.25     0  03:01        1.08
  HS02004802           JUNCTION     0.30     1.13    10.25     0  03:01        1.13
  HS02004799           JUNCTION     0.30     1.45    10.66     0  03:01        1.44
  HS02004792           JUNCTION     0.18     1.44    10.96     0  03:01        1.44
  HS02004788           JUNCTION     0.12     1.26    11.16     0  02:50        1.18
  HS02004785           JUNCTION     0.16     1.32    11.22     0  02:50        1.23
  HS02004777           JUNCTION     0.28     1.43    11.23     0  02:50        1.40
  HS02004770           JUNCTION     0.25     1.42    11.25     0  02:50        1.41
  HS02004480           JUNCTION     0.24     1.22    10.46     0  03:01        1.22
  HS02004479           JUNCTION     0.28     1.26    10.47     0  03:01        1.26
  HS02004478           JUNCTION     0.19     1.03    10.25     0  03:01        1.03
  YS02001745           JUNCTION     1.06     2.35     9.87     0  01:22        2.27
  YS02001748           JUNCTION     1.43     2.27     9.35     0  01:22        2.27
  YS02001751           JUNCTION     1.57     2.20     9.08     0  01:22        2.19
  YS02001754           JUNCTION     1.79     2.20     8.81     0  01:22        2.17
  YS02001762           JUNCTION     1.95     2.15     8.55     0  02:50        2.15
  YS02001765           JUNCTION     1.90     2.09     8.54     0  02:50        2.08
  YS02001767           JUNCTION     1.85     2.03     8.52     0  01:19        2.01
  YS02001770           JUNCTION     1.84     1.95     8.44     0  01:19        1.95
  YS02001774           JUNCTION     1.90     2.00     8.42     0  02:50        1.99
  YS02001779           JUNCTION     1.62     1.68     8.37     0  01:21        1.68
  YS02001882           JUNCTION     1.10     1.83     8.55     0  01:23        1.82
  YS02001884           JUNCTION     1.20     1.93     8.55     0  02:50        1.92
  YS02001759           JUNCTION     1.99     2.21     8.57     0  02:28        2.21
  YS02001887           JUNCTION     1.28     2.00     8.54     0  02:13        2.00
  YS02001890           JUNCTION     1.26     1.81     8.32     0  01:23        1.81
  YS02001898           JUNCTION     1.02     1.77     8.51     0  01:23        1.55
  YS02001901           JUNCTION     1.14     1.87     8.48     0  01:23        1.67
  YS02001904           JUNCTION     1.11     1.77     8.40     0  01:23        1.63
  YS02001907           JUNCTION     1.44     1.96     8.25     0  01:25        1.96
  YS02001910           JUNCTION     1.30     2.02     8.52     0  01:26        2.00
  YS02001915           JUNCTION     1.16     2.00     8.72     0  02:13        2.00
  YS02001918           JUNCTION     0.89     1.81     8.88     0  01:26        1.81
  YS02001619           JUNCTION     1.45     1.61     8.54     0  01:21        1.61
  YS02001629           JUNCTION     1.77     1.85     8.40     0  01:21        1.85
  YS02001641           JUNCTION     1.86     1.97     8.41     0  01:22        1.96
  YS02001644           JUNCTION     1.86     1.92     8.35     0  01:22        1.92
  YS02001652           JUNCTION     1.78     2.16     8.76     0  01:23        2.14
  YS02001655           JUNCTION     1.58     2.20     9.05     0  01:22        2.20
  YS02001920           JUNCTION     1.00     2.13     9.14     0  01:26        2.00
  YS02001923           JUNCTION     0.80     2.03     9.29     0  01:26        1.87
  YS02001926           JUNCTION     0.78     1.90     9.35     0  01:26        1.80
  YS02001929           JUNCTION     0.60     1.78     9.47     0  01:26        1.69
  YS02001658           JUNCTION     1.35     2.30     9.44     0  01:22        2.30
  YS02001661           JUNCTION     1.15     2.44     9.84     0  03:01        2.43
  YS02001664           JUNCTION     0.68     2.31    10.23     0  02:59        2.31
  YS02001622           JUNCTION     1.45     1.62     8.52     0  01:21        1.57
  YS02001633           JUNCTION     1.89     2.08     8.53     0  02:35        2.08
  YS02001649           JUNCTION     1.94     2.05     8.44     0  01:22        2.05
  YS02001757           JUNCTION     2.07     2.21     8.47     0  01:22        2.21
  YS02001895           JUNCTION     1.02     1.66     8.41     0  01:23        1.56
  YS02001625           JUNCTION     1.71     1.78     8.38     0  01:21        1.78
  YS02163301           JUNCTION     1.81     1.95     8.47     0  02:50        1.95
  YS02163601           JUNCTION     1.92     2.08     8.47     0  03:01        2.07
  YS02164001           JUNCTION     1.85     1.98     8.43     0  02:50        1.97
  YS02001647           JUNCTION     1.70     1.80     8.41     0  01:23        1.79
  YSB1154              JUNCTION     0.42     1.43    10.49     0  03:01        1.43
  YSB6556              JUNCTION     0.31     1.31    10.48     0  03:01        1.31
  YSB1174              JUNCTION     0.37     1.37    10.48     0  03:01        1.37
  YSB1171              JUNCTION     0.57     1.57    10.47     0  03:01        1.57
  YS02006553           JUNCTION     1.45     2.12     8.40     0  03:01        2.12
  YS02006561           JUNCTION     0.71     1.43     8.09     0  03:01        1.43
  YS02006556           JUNCTION     1.44     2.31     8.62     0  03:01        2.31
  YS02006558           JUNCTION     1.49     2.47     8.74     0  03:01        2.47
  YS02001783           JUNCTION     1.08     1.86     8.00     0  01:22        1.78
  YS02001784           JUNCTION     1.07     2.29     8.36     0  01:22        1.68
  YS02001786           JUNCTION     0.98     2.23     8.26     0  01:22        1.47
  YS02001788           JUNCTION     0.92     2.28     8.26     0  01:22        1.28
  YS02001790           JUNCTION     1.13     1.96     7.60     0  01:22        1.39
  YS02001791           JUNCTION     1.17     2.72     8.19     0  01:21        1.31
  YS02001793           JUNCTION     1.72     2.66     7.49     0  01:20        1.82
  WSC                  OUTFALL      0.18     0.40     1.07     0  03:03        0.40
  3                    OUTFALL      0.00     0.00     7.16     0  00:00        0.00
  4                    OUTFALL      0.00     0.00     7.67     0  00:00        0.00
  5                    OUTFALL      0.00     0.00     4.91     0  00:00        0.00
  JK-storage           STORAGE      5.70     5.80     6.60     0  01:22        5.80
  CC-storage           STORAGE      1.28     1.47     8.47     0  02:17        1.47
  XR-storage           STORAGE      7.64     7.72     5.72     0  01:23        7.72
  
  
  *******************
  Node Inflow Summary
  *******************
  
  -------------------------------------------------------------------------------------------------
                                  Maximum  Maximum                  Lateral       Total        Flow
                                  Lateral    Total  Time of Max      Inflow      Inflow     Balance
                                   Inflow   Inflow   Occurrence      Volume      Volume       Error
  Node                 Type           LPS      LPS  days hr:min    10^6 ltr    10^6 ltr     Percent
  -------------------------------------------------------------------------------------------------
  WS02001211           JUNCTION      7.35   268.48     0  03:03       0.212        1.61       0.377
  WS02001212           JUNCTION      0.00   261.27     0  03:02           0        1.39       0.004
  WS02001213           JUNCTION      0.00   261.41     0  03:02           0         1.4       0.566
  WS02003069           JUNCTION      0.32   945.96     0  03:02     0.00922        6.91       0.063
  WS02003072           JUNCTION      0.00   945.64     0  03:02           0        6.91       0.109
  WS02003073           JUNCTION      1.82   947.25     0  03:03      0.0524        6.95       0.086
  WS02003060           JUNCTION     16.53  1207.68     0  03:01       0.476        8.33       0.047
  WS02003066           JUNCTION      0.00  1190.95     0  03:01           0        7.85       0.019
  WS02003059           JUNCTION      0.00   261.74     0  03:02           0        1.43       1.135
  WS02003067           JUNCTION      0.00  1190.70     0  03:01           0        7.85       0.054
  WS02004401           JUNCTION      0.00  1192.01     0  03:01           0        7.96       0.132
  WS02004402           JUNCTION      0.00  1192.01     0  03:01           0        7.95       0.133
  WS02004403           JUNCTION      0.00  1192.04     0  03:01           0        7.94       0.131
  WS02004404           JUNCTION      0.16  1192.20     0  03:01     0.00467        7.93       0.106
  WS02004406           JUNCTION      0.00  1192.30     0  03:01           0        7.91       0.261
  WS02004409           JUNCTION      0.00  1190.67     0  03:01           0        7.89       0.042
  WS02004410           JUNCTION      0.00  1190.65     0  03:01           0        7.89       0.064
  WS02004411           JUNCTION      0.00  1190.59     0  03:01           0        7.88       0.078
  WS02004412           JUNCTION      0.00  1190.59     0  03:01           0        7.88       0.100
  WS02004413           JUNCTION      0.00  1190.68     0  03:01           0        7.87       0.186
  WS02004405           JUNCTION      0.04  1192.25     0  03:01      0.0011        7.93       0.162
  WS02006109           JUNCTION      1.23  1087.39     0  03:01      0.0354        7.53       0.105
  WS02006110           JUNCTION      0.00  1087.50     0  03:01           0        7.52       0.120
  WS02006111           JUNCTION      0.00  1087.67     0  03:01           0        7.51       0.012
  WS02006112           JUNCTION    105.20  1191.96     0  03:01       0.482        7.99       0.181
  WS02006113           JUNCTION      0.00  1087.55     0  03:01           0        7.51       0.031
  WS02006115           JUNCTION      0.00  1191.96     0  03:01           0        7.97       0.130
  WS02006116           JUNCTION      0.00  1191.99     0  03:01           0        7.96       0.045
  WS02006230           JUNCTION     10.28   910.70     0  03:01       0.296        4.75       0.065
  WS02006231           JUNCTION      0.00   910.71     0  03:01           0        4.53       0.001
  WS02006232           JUNCTION      0.00   910.72     0  03:01           0        4.53       0.034
  WS02006234           JUNCTION      0.00   910.73     0  03:01           0        4.53       0.019
  WS02006235           JUNCTION      0.00  1157.51     0  03:01           0         5.9       0.000
  WS02006238           JUNCTION      0.00   266.04     0  03:03           0        1.39       0.253
  WS02006240           JUNCTION      0.00   264.83     0  03:02           0        1.39       0.121
  WS02006242           JUNCTION      0.00   265.33     0  03:02           0        1.39       0.287
  WS02006243           JUNCTION      0.00   266.37     0  03:02           0         1.4       0.189
  WS02006245           JUNCTION      0.00   267.66     0  03:02           0         1.4       0.205
  WS02006247           JUNCTION      0.00   269.17     0  03:01           0         1.4       0.164
  WS02006248           JUNCTION      0.00   270.50     0  03:01           0         1.4       0.052
  WS02006249           JUNCTION      0.00   272.37     0  03:01           0        1.41       0.250
  WS02006239           JUNCTION      0.00   265.52     0  03:03           0        1.39       0.259
  WS02006251           JUNCTION      0.08  1387.69     0  03:02     0.00222        8.24       0.013
  WS02006252           JUNCTION      0.00   200.00     0  01:17           0        4.84       0.009
  WS02006253           JUNCTION     10.50  1260.35     0  03:01      0.0486         3.4       0.075
  WS02006256           JUNCTION      0.00    17.93     0  01:18           0    0.000974     620.713
  WS02004138           JUNCTION      0.00   190.00     0  00:00           0        5.47       0.073
  WS02004139           JUNCTION      0.32   458.71     0  03:03     0.00924        7.08       0.063
  WS02004407           JUNCTION      0.00  1192.29     0  03:01           0        7.89       0.016
  WS02006228           JUNCTION      0.00  1086.08     0  03:01           0         7.5       0.057
  WS02006229           JUNCTION      0.00  1986.19     0  03:01           0        11.9       0.035
  WS02006280           JUNCTION      0.00  1985.98     0  03:01           0        11.7      -0.003
  WS02006284           JUNCTION      0.10  1985.94     0  03:01     0.00275        11.7       0.011
  WS02006287           JUNCTION      0.00  1985.82     0  03:01           0        11.7       0.019
  WSF200               JUNCTION      0.00  1191.03     0  03:01           0        7.85       0.006
  HS02004901           JUNCTION    128.49   128.49     0  03:01       0.587       0.587       0.340
  HS02004881           JUNCTION     42.90  1254.61     0  03:02       0.201        3.35       0.007
  HS02004876           JUNCTION     83.02  1096.26     0  03:01       0.394        3.15       0.014
  HS02004870           JUNCTION     80.86  1016.09     0  03:01       0.381        2.76       0.004
  HS02004862           JUNCTION    106.80   939.04     0  03:01       0.509        2.38       0.007
  HS02004856           JUNCTION     60.78   836.46     0  03:01       0.287        1.87       0.077
  HS02004852           JUNCTION      0.00   781.44     0  03:01           0        1.58       0.004
  HS02004848           JUNCTION    248.78   784.02     0  03:01         1.2        1.73       0.002
  HS02004842           JUNCTION      0.00   536.62     0  03:01           0         0.7       1.939
  HS02004837           JUNCTION    145.05   539.70     0  03:00       0.842        1.25       0.064
  HS02004830           JUNCTION      0.15   396.37     0  03:01     0.00432       0.965       0.177
  HS02004824           JUNCTION    248.59   396.39     0  03:01        1.23        1.99       0.055
  HS02004817           JUNCTION      0.60   291.73     0  03:08      0.0173         1.8       0.915
  HS02004807           JUNCTION    147.50   354.25     0  02:28       0.694        2.43       0.198
  HS02004802           JUNCTION      0.00   367.86     0  03:07           0        2.37       0.163
  HS02004799           JUNCTION    120.17  1731.69     0  03:01       0.568        8.18       0.047
  HS02004792           JUNCTION    740.35  1612.05     0  02:59         3.4        7.61       0.009
  HS02004788           JUNCTION    209.33   885.88     0  02:58        1.01        4.22       0.019
  HS02004785           JUNCTION      0.15   681.84     0  02:58     0.00432         3.2       0.029
  HS02004777           JUNCTION      0.03   681.70     0  02:58    0.000864        3.21       0.179
  HS02004770           JUNCTION    572.39   681.69     0  02:58        2.63        3.21       0.118
  HS02004480           JUNCTION      0.00  1985.65     0  03:01           0        9.37       0.009
  HS02004479           JUNCTION      0.00   253.99     0  03:01           0        1.21       0.072
  HS02004478           JUNCTION      0.00  2018.28     0  02:50           0        11.7       0.003
  YS02001745           JUNCTION   2846.95  2846.95     0  03:01        16.8        16.8       0.071
  YS02001748           JUNCTION      0.04  2846.91     0  03:01      0.0013        16.8       0.133
  YS02001751           JUNCTION      0.01  2353.62     0  02:50    0.000317        16.5       0.147
  YS02001754           JUNCTION      0.26  2353.93     0  02:50     0.00749        16.5       0.146
  YS02001762           JUNCTION      0.00   722.18     0  02:50           0        6.49       0.325
  YS02001765           JUNCTION      0.00   722.03     0  02:50           0        6.48       0.375
  YS02001767           JUNCTION      0.54   722.55     0  03:01      0.0154        6.51       0.551
  YS02001770           JUNCTION   3143.85  3866.03     0  03:01        17.7        23.1       0.134
  YS02001774           JUNCTION      0.00   851.47     0  02:50           0        10.1       0.247
  YS02001779           JUNCTION      0.01   851.37     0  03:03    0.000144        10.1       0.152
  YS02001882           JUNCTION      0.00   104.70     0  01:23           0       0.064       5.635
  YS02001884           JUNCTION      0.00    99.19     0  01:23           0        0.11       7.375
  YS02001759           JUNCTION   3085.25  3085.25     0  03:01        17.1        18.1       0.125
  YS02001887           JUNCTION   3361.73  3361.73     0  03:01          18          18       0.054
  YS02001890           JUNCTION      0.00  2052.03     0  03:08           0        15.9       0.072
  YS02001898           JUNCTION      0.00   582.99     0  01:25           0        6.74       0.042
  YS02001901           JUNCTION      0.00   583.70     0  01:25           0        6.73       0.148
  YS02001904           JUNCTION      0.00   583.47     0  01:25           0        6.72       0.118
  YS02001907           JUNCTION      0.00  4597.35     0  03:01           0        33.8       0.079
  YS02001910           JUNCTION      0.00  1992.45     0  03:04           0        20.5       0.064
  YS02001915           JUNCTION   2341.66  3563.36     0  03:01        13.5        24.1       0.037
  YS02001918           JUNCTION      0.00  1539.18     0  03:01           0        10.9       0.025
  YS02001619           JUNCTION   2531.03  2531.03     0  03:01        15.3        15.3       0.079
  YS02001629           JUNCTION      0.00  1138.44     0  02:50           0        8.06       0.346
  YS02001641           JUNCTION      0.00   905.63     0  03:08           0        10.3       0.203
  YS02001644           JUNCTION   2774.48  4526.13     0  03:01        16.5        37.8       0.068
  YS02001652           JUNCTION      0.00  2428.58     0  03:02           0        15.5       0.143
  YS02001655           JUNCTION      0.15  2731.44     0  03:01     0.00443        15.7       0.162
  YS02001920           JUNCTION      2.87  1538.90     0  03:01      0.0827        10.9       0.040
  YS02001923           JUNCTION      0.04  1535.97     0  03:01     0.00109        10.8       0.020
  YS02001926           JUNCTION      0.05  1535.76     0  03:01      0.0015        10.8       0.039
  YS02001929           JUNCTION   1535.61  1535.61     0  03:01        10.8        10.8       0.008
  YS02001658           JUNCTION      0.00  2783.08     0  03:01           0        15.7       0.148
  YS02001661           JUNCTION      0.00  2783.08     0  03:01           0        16.2       0.029
  YS02001664           JUNCTION   2828.43  2828.43     0  03:01        15.7        16.2       0.042
  YS02001622           JUNCTION      0.00  1053.24     0  02:35           0        11.6       0.271
  YS02001633           JUNCTION   2822.93  2822.93     0  03:01        16.9          18       0.176
  YS02001649           JUNCTION      0.00  3236.41     0  03:02           0        24.2       0.152
  YS02001757           JUNCTION      0.00  3761.11     0  02:50           0          29       0.317
  YS02001895           JUNCTION      0.00   582.67     0  01:25           0        6.72       0.118
  YS02001625           JUNCTION      0.00  1505.02     0  03:16           0        15.6       0.259
  YS02163301           JUNCTION      0.00  1138.44     0  02:50           0        8.06       0.297
  YS02163601           JUNCTION      0.11   905.50     0  03:08     0.00317        10.3       0.291
  YS02164001           JUNCTION      0.00   905.49     0  03:08           0        10.3       0.193
  YS02001647           JUNCTION      0.00   846.70     0  02:50           0        11.3       0.250
  YSB1154              JUNCTION    142.18   142.18     0  03:01       0.678       0.678       0.220
  YSB6556              JUNCTION      0.00   142.17     0  03:01           0       0.679       0.193
  YSB1174              JUNCTION    111.81   111.81     0  03:01       0.517       0.518       0.259
  YSB1171              JUNCTION      0.00   253.97     0  03:01           0         1.2       0.545
  YS02006553           JUNCTION      0.00  2088.14     0  03:01           0        13.2       0.130
  YS02006561           JUNCTION      0.00  1108.77     0  03:01           0        17.4       0.008
  YS02006556           JUNCTION      0.00  2087.97     0  03:01           0        13.2       0.097
  YS02006558           JUNCTION   3196.80  3196.80     0  03:01        17.4          24       0.026
  YS02001783           JUNCTION      0.00  1108.81     0  03:01           0        17.4       0.044
  YS02001784           JUNCTION      1.06  1109.88     0  03:01      0.0305        17.4       0.065
  YS02001786           JUNCTION      0.06  1109.92     0  03:01     0.00162        17.4       0.079
  YS02001788           JUNCTION      0.07  1110.04     0  03:01     0.00204        17.4       0.079
  YS02001790           JUNCTION      0.15  1110.19     0  03:01     0.00446        17.4       0.098
  YS02001791           JUNCTION      0.00  1110.17     0  03:01           0        17.4       0.083
  YS02001793           JUNCTION      0.00  1110.24     0  03:01           0        17.3       0.095
  WSC                  OUTFALL       0.00   947.00     0  03:03           0        6.95       0.000
  3                    OUTFALL       0.00  1157.44     0  03:01           0         5.9       0.000
  4                    OUTFALL       0.00  1093.46     0  03:02           0        6.83       0.000
  5                    OUTFALL       0.00   458.66     0  03:03           0        7.07       0.000
  JK-storage           STORAGE       0.00  1110.23     0  03:01           0        17.5       0.115
  CC-storage           STORAGE       0.00  2230.58     0  01:38           0        8.65       0.753
  XR-storage           STORAGE    6736.50  6736.50     0  03:01        56.2        56.8       0.000
  
  
  **********************
  Node Surcharge Summary
  **********************
  
  Surcharging occurs when water rises above the top of the highest conduit.
  ---------------------------------------------------------------------
                                               Max. Height   Min. Depth
                                   Hours       Above Crown    Below Rim
  Node                 Type      Surcharged         Meters       Meters
  ---------------------------------------------------------------------
  WS02004401           JUNCTION        1.73          0.622        1.038
  WS02004402           JUNCTION        1.75          0.580        1.160
  WS02004403           JUNCTION        1.76          0.522        1.508
  WS02004404           JUNCTION        1.85          0.545        2.235
  WS02004406           JUNCTION        1.82          0.416        2.034
  WS02004409           JUNCTION        0.98          0.265        2.095
  WS02004410           JUNCTION        0.89          0.189        2.351
  WS02004411           JUNCTION        0.76          0.122        2.408
  WS02004412           JUNCTION        0.52          0.048        2.262
  WS02004413           JUNCTION        1.32          0.110        2.090
  WS02004405           JUNCTION        1.84          0.501        2.299
  WS02006109           JUNCTION        2.09          1.687        0.133
  WS02006110           JUNCTION        1.93          1.293        0.557
  WS02006111           JUNCTION        1.20          0.654        1.216
  WS02006112           JUNCTION        1.95          1.071        0.609
  WS02006113           JUNCTION        1.22          0.794        1.136
  WS02006115           JUNCTION        1.61          0.673        1.577
  WS02006116           JUNCTION        1.63          0.631        1.659
  WS02006230           JUNCTION        1.72          1.359        0.211
  WS02006231           JUNCTION        1.62          0.969        0.561
  WS02006232           JUNCTION        1.71          0.720        0.760
  WS02006234           JUNCTION        0.93          0.181        1.059
  WS02006253           JUNCTION        0.02          0.757        1.723
  WS02006256           JUNCTION        2.28          1.460        0.590
  WS02006228           JUNCTION        2.09          1.936        0.264
  WS02006229           JUNCTION        0.78          0.711        0.359
  WS02006280           JUNCTION        0.46          0.336        0.444
  WS02006284           JUNCTION        0.32          0.226        0.574
  WS02006287           JUNCTION        0.21          0.209        0.681
  HS02004901           JUNCTION        0.39          0.720        0.000
  HS02004842           JUNCTION        0.26          0.232        1.288
  HS02004830           JUNCTION        0.08          0.063        1.267
  HS02004824           JUNCTION        0.14          0.145        1.165
  HS02004817           JUNCTION        1.95          0.703        1.037
  HS02004807           JUNCTION        0.44          0.384        0.836
  HS02004802           JUNCTION        0.51          0.415        0.795
  HS02004799           JUNCTION        1.18          0.745        0.315
  HS02004792           JUNCTION        0.55          0.737        0.163
  HS02004788           JUNCTION        0.21          0.557        0.163
  HS02004785           JUNCTION        0.22          0.621        0.169
  HS02004777           JUNCTION        0.38          0.731        0.049
  HS02004770           JUNCTION        0.38          0.720        0.000
  HS02004480           JUNCTION        0.63          0.513        0.587
  HS02004479           JUNCTION        0.46          0.463        0.587
  HS02004478           JUNCTION        0.10          0.106        0.834
  YS02001745           JUNCTION        2.50          1.350        0.000
  YS02001748           JUNCTION        6.62          1.190        0.000
  YS02001751           JUNCTION        6.63          1.200        0.000
  YS02001754           JUNCTION        6.65          1.150        0.000
  YS02001762           JUNCTION        6.68          1.150        0.000
  YS02001765           JUNCTION        6.67          1.086        0.014
  YS02001767           JUNCTION        6.67          1.030        0.000
  YS02001770           JUNCTION        6.67          0.920        0.000
  YS02001774           JUNCTION        6.68          1.002        0.048
  YS02001779           JUNCTION        6.65          0.680        0.000
  YS02001882           JUNCTION        3.74          0.830        0.000
  YS02001884           JUNCTION        3.77          0.870        0.000
  YS02001759           JUNCTION        6.68          1.210        0.000
  YS02001887           JUNCTION        3.85          0.950        0.000
  YS02001890           JUNCTION        3.87          0.760        0.000
  YS02001898           JUNCTION        3.71          0.740        0.000
  YS02001901           JUNCTION        3.82          0.870        0.000
  YS02001904           JUNCTION        3.80          0.771        0.079
  YS02001907           JUNCTION        4.24          0.950        0.000
  YS02001910           JUNCTION        3.93          1.017        0.083
  YS02001915           JUNCTION        3.75          1.000        0.000
  YS02001918           JUNCTION        3.53          0.810        0.000
  YS02001619           JUNCTION        6.64          0.610        0.000
  YS02001629           JUNCTION        6.64          0.470        0.000
  YS02001641           JUNCTION        6.67          0.974        0.126
  YS02001644           JUNCTION        6.67          0.920        0.000
  YS02001652           JUNCTION        6.65          1.130        0.000
  YS02001655           JUNCTION        6.64          1.200        0.000
  YS02001920           JUNCTION        3.57          1.130        0.010
  YS02001923           JUNCTION        2.13          0.820        0.000
  YS02001926           JUNCTION        2.28          0.900        0.000
  YS02001929           JUNCTION        1.62          0.780        0.000
  YS02001658           JUNCTION        6.62          1.300        0.000
  YS02001661           JUNCTION        2.77          1.366        0.024
  YS02001664           JUNCTION        1.29          1.310        0.000
  YS02001622           JUNCTION        6.65          0.620        0.000
  YS02001633           JUNCTION        6.67          1.060        0.000
  YS02001649           JUNCTION        6.67          1.050        0.000
  YS02001757           JUNCTION        6.69          1.210        0.000
  YS02001895           JUNCTION        3.72          0.661        0.089
  YS02001625           JUNCTION        6.65          0.780        0.000
  YS02163301           JUNCTION        6.66          0.955        0.075
  YS02163601           JUNCTION        6.67          1.077        0.003
  YS02164001           JUNCTION        6.67          0.977        0.123
  YS02001647           JUNCTION        6.65          0.800        0.100
  YSB1154              JUNCTION        1.57          0.730        0.670
  YSB6556              JUNCTION        1.01          0.611        0.489
  YSB1174              JUNCTION        1.33          0.670        0.580
  YSB1171              JUNCTION        1.58          0.720        0.380
  YS02006553           JUNCTION        4.29          1.118        0.072
  YS02006561           JUNCTION        3.62          0.635        0.515
  YS02006556           JUNCTION        4.08          1.266        0.084
  YS02006558           JUNCTION        4.05          1.372        0.028
  YS02001783           JUNCTION        4.13          1.059        0.541
  YS02001784           JUNCTION        4.23          1.490        0.000
  YS02001786           JUNCTION        4.13          1.430        0.000
  YS02001788           JUNCTION        4.12          1.480        0.000
  YS02001790           JUNCTION        6.63          1.157        0.000
  YS02001791           JUNCTION        6.64          1.920        0.000
  YS02001793           JUNCTION        6.65          1.659        0.941
  
  
  *********************
  Node Flooding Summary
  *********************
  
  Flooding refers to all water that overflows a node, whether it ponds or not.
  --------------------------------------------------------------------------
                                                             Total   Maximum
                                 Maximum   Time of Max       Flood    Ponded
                        Hours       Rate    Occurrence      Volume     Depth
  Node                 Flooded       LPS   days hr:min    10^6 ltr    Meters
  --------------------------------------------------------------------------
  HS02004901              0.04     39.15      0  03:01       0.003     0.000
  HS02004770              0.01      8.01      0  02:50       0.000     0.000
  YS02001745              0.01     87.17      0  01:22       0.000     0.000
  YS02001748              0.36    493.54      0  03:01       0.306     0.000
  YS02001751              0.01     30.63      0  01:22       0.000     0.000
  YS02001754              0.01     22.91      0  01:22       0.000     0.000
  YS02001762              0.02      0.55      0  02:50       0.000     0.000
  YS02001767              0.01     50.54      0  01:19       0.000     0.000
  YS02001770              2.36   3014.61      0  03:01      11.933     0.000
  YS02001779              5.29    851.27      0  03:03      10.064     0.000
  YS02001882              0.01     13.92      0  01:23       0.000     0.000
  YS02001884              0.01      0.29      0  02:50       0.000     0.000
  YS02001759              0.71    956.07      0  03:01       1.119     0.000
  YS02001887              0.97   1309.36      0  03:01       2.071     0.000
  YS02001890              2.50   1536.12      0  03:03       9.186     0.000
  YS02001898              0.01     96.83      0  01:23       0.000     0.000
  YS02001901              0.01     16.81      0  01:23       0.000     0.000
  YS02001907              3.37   4597.13      0  03:01      27.144     0.000
  YS02001915              1.24   1570.74      0  03:01       3.516     0.000
  YS02001918              0.47    317.33      0  03:01       0.254     0.000
  YS02001619              1.58   1477.63      0  03:01       3.653     0.000
  YS02001629              1.82    686.54      0  02:50       2.892     0.000
  YS02001644              6.62   4525.96      0  03:01      37.357     0.000
  YS02001652              0.01      5.72      0  01:23       0.000     0.000
  YS02001655              0.28    302.86      0  03:01       0.178     0.000
  YS02001923              0.01    244.24      0  01:26       0.000     0.000
  YS02001926              0.01    252.04      0  01:26       0.000     0.000
  YS02001929              0.01    254.67      0  01:26       0.001     0.000
  YS02001658              0.06    291.97      0  01:22       0.008     0.000
  YS02001664              0.03     45.11      0  03:01       0.002     0.000
  YS02001622              0.01    164.08      0  01:21       0.000     0.000
  YS02001633              0.62    779.73      0  03:01       0.806     0.000
  YS02001649              2.55   2389.70      0  03:01      12.054     0.000
  YS02001757              2.00   2758.78      0  02:47      11.813     0.000
  YS02001625              4.36   1505.02      0  03:22      14.344     0.000
  YS02001784              0.01     37.65      0  01:22       0.000     0.000
  YS02001786              0.01     25.37      0  01:22       0.000     0.000
  YS02001788              0.01     95.43      0  01:22       0.000     0.000
  YS02001790              0.01    216.45      0  01:22       0.000     0.000
  YS02001791              0.01    188.09      0  01:21       0.000     0.000
  JK-storage              6.63   1110.22      0  03:01      17.163     0.000
  XR-storage              6.60   6546.22      0  03:01      50.370     0.000
  
  
  **********************
  Storage Volume Summary
  **********************
  
  --------------------------------------------------------------------------------------------------
                         Average     Avg  Evap Exfil       Maximum     Max    Time of Max    Maximum
                          Volume    Pcnt  Pcnt  Pcnt        Volume    Pcnt     Occurrence    Outflow
  Storage Unit           1000 m3    Full  Loss  Loss       1000 m3    Full    days hr:min        LPS
  --------------------------------------------------------------------------------------------------
  JK-storage               0.286      98     0     0         0.291     100       0  01:22       0.00
  CC-storage               3.562      23     0     0         4.104      26       0  02:17     200.00
  XR-storage               0.916      99     0     0         0.926     100       0  01:23     190.00
  
  
  ***********************
  Outfall Loading Summary
  ***********************
  
  ---------------------------------------------------------------------------------------------------------------------------------
                         Flow       Avg       Max       Total         Total         Total         Total         Total         Total
                         Freq      Flow      Flow      Volume           COD            SS            TN            TP         NH4-N
  Outfall Node           Pcnt       LPS       LPS    10^6 ltr            kg            kg            kg            kg            kg
  ---------------------------------------------------------------------------------------------------------------------------------
  WSC                  100.00    277.36    947.00       6.949       946.193      1732.614        34.755         3.397        19.178
  3                     97.18    243.72   1157.44       5.895       766.198      1442.390        19.725         1.554         9.932
  4                     99.99    273.25   1093.46       6.830       841.542      1650.618        19.211         1.416         9.550
  5                    100.00    253.49    458.66       7.070       792.020      1378.354        45.232         5.060        26.693
  ---------------------------------------------------------------------------------------------------------------------------------
  System                99.29   1047.83   3631.45      26.743      3345.954      6203.976       118.924        11.427        65.353
  
  
  ********************
  Link Flow Summary
  ********************
  
  -----------------------------------------------------------------------------
                                 Maximum  Time of Max   Maximum    Max/    Max/
                                  |Flow|   Occurrence   |Veloc|    Full    Full
  Link                 Type          LPS  days hr:min     m/sec    Flow   Depth
  -----------------------------------------------------------------------------
  WS02003066WSF200     CONDUIT   1191.03     0  03:01      3.52    0.20    0.34
  WS02006287WS02006284 CONDUIT   1985.84     0  03:01      3.06    0.92    1.00
  WS02006284WS02006280 CONDUIT   1985.98     0  03:01      3.31    0.83    1.00
  WS02006280WS02006229 CONDUIT   1986.19     0  03:01      5.13    0.42    1.00
  WS02006229WS02006228 CONDUIT   1086.08     0  03:01      2.16    3.60    1.00
  WS02006256WS02006235 CONDUIT     17.93     0  01:18      0.68    0.19    1.00
  WS02006253WS02006251 CONDUIT   1187.62     0  03:02      3.12    3.56    0.96
  WS02006252WS02006251 CONDUIT    202.01     0  01:17      1.98    0.74    0.76
  WS02006251WS02006249 CONDUIT    272.37     0  03:01      0.99    0.79    0.67
  WS02006249WS02006248 CONDUIT    270.50     0  03:01      1.06    1.48    0.63
  WS02006248WS02006247 CONDUIT    269.17     0  03:01      1.03    0.59    0.65
  WS02006247WS02006245 CONDUIT    267.66     0  03:02      1.00    2.12    0.66
  WS02006245WS02006243 CONDUIT    266.37     0  03:02      1.04    0.79    0.63
  WS02006243WS02006242 CONDUIT    265.33     0  03:02      0.92    0.57    0.70
  WS02006242WS02006240 CONDUIT    264.83     0  03:02      0.88    1.05    0.73
  WS02006240WS02006239 CONDUIT    265.52     0  03:03      0.98    0.84    0.67
  WS02006239WS02006238 CONDUIT    266.04     0  03:03      0.90    0.85    0.72
  WS02006238WS02006235 CONDUIT    266.24     0  03:03      1.10    0.59    0.73
  WS02006235WS02006234 CONDUIT    910.73     0  03:01      2.45    9.61    0.92
  WS02006234WS02006232 CONDUIT    910.73     0  03:01      2.37    1.84    1.00
  WS02006232WS02006231 CONDUIT    910.72     0  03:01      2.37    1.91    1.00
  WS02006231WS02006230 CONDUIT    910.71     0  03:01      2.37   13.81    1.00
  WS02006230WS02006229 CONDUIT    900.42     0  03:01      2.34   20.04    1.00
  WS02006228WS02006109 CONDUIT   1086.16     0  03:01      2.16    4.75    1.00
  WS02006116WS02004401 CONDUIT   1192.01     0  03:01      1.52    1.64    1.00
  WS02006115WS02006116 CONDUIT   1191.99     0  03:01      1.52    1.53    1.00
  WS02006113WS02006111 CONDUIT   1087.67     0  03:01      2.58    1.30    1.00
  WS02006112WS02006115 CONDUIT   1191.96     0  03:01      1.52    0.70    1.00
  WS02006111WS02006112 CONDUIT   1087.80     0  03:01      2.16    0.52    1.00
  WS02006110WS02006113 CONDUIT   1087.55     0  03:01      2.16    0.99    1.00
  WS02006109WS02006110 CONDUIT   1087.50     0  03:01      2.16    2.09    1.00
  WS02004411WS02004412 CONDUIT   1190.59     0  03:01      1.52    1.69    1.00
  WS02004401WS02004402 CONDUIT   1192.01     0  03:01      1.52    1.43    1.00
  WS02004413WS02003067 CONDUIT   1190.70     0  03:01      1.88    0.51    0.75
  WS02004412WS02004413 CONDUIT   1190.68     0  03:01      1.52    0.80    1.00
  WS02004410WS02004411 CONDUIT   1190.59     0  03:01      1.52    1.63    1.00
  WS02004409WS02004410 CONDUIT   1190.65     0  03:01      1.52    1.54    1.00
  WS02004407WS02004409 CONDUIT   1190.67     0  03:01      1.71    0.42    0.87
  WS02004406WS02004407 CONDUIT   1192.29     0  03:01      1.67    0.53    0.87
  WS02004405WS02004406 CONDUIT   1192.30     0  03:01      1.52    2.35    1.00
  WS02004404WS02004405 CONDUIT   1192.22     0  03:01      1.52   11.68    1.00
  WS02004403WS02004404 CONDUIT   1192.04     0  03:01      1.52    0.86    1.00
  WS02004402WS02004403 CONDUIT   1192.04     0  03:01      1.52    1.71    1.00
  WS02004139WS02001211 CONDUIT    268.39     0  03:03      1.10    0.34    0.27
  WS02004138WS02004139 CONDUIT    192.83     0  00:00      2.96    0.04    0.18
  WS02003067WS02003066 CONDUIT   1190.95     0  03:01      1.94    0.38    0.53
  WS02001213WS02003059 CONDUIT    261.41     0  03:02      0.44    0.43    0.70
  WS02001212WS02001213 CONDUIT    261.27     0  03:02      1.32    0.40    0.33
  WS02001211WS02001212 CONDUIT    261.13     0  03:03      0.92    0.20    0.39
  WS02003072WS02003073 CONDUIT    945.43     0  03:03      1.73    2.04    0.49
  WS02003069WS02003072 CONDUIT    945.64     0  03:02      1.63    0.46    0.51
  WS02003060WS02003069 CONDUIT    945.64     0  03:02      1.87    0.37    0.46
  WS02003059WS02003060 CONDUIT    261.74     0  03:02      0.82    0.17    0.64
  HS02004901HS02004770 CONDUIT    124.83     0  02:58      0.18    0.47    1.00
  HS02004876HS02004881 CONDUIT   1222.55     0  03:02      3.22   13.00    0.55
  HS02004870HS02004876 CONDUIT   1017.92     0  03:01      2.14    0.68    0.74
  HS02004842HS02004848 CONDUIT    536.65     0  03:01      0.86    0.31    0.89
  HS02004837HS02004842 CONDUIT    536.62     0  03:01      0.80    0.32    0.95
  HS02004830HS02004837 CONDUIT    396.26     0  03:01      0.69    0.39    0.95
  HS02004824HS02004830 CONDUIT    396.22     0  03:01      0.67    0.52    1.00
  HS02004817HS02004824 CONDUIT    291.13     0  03:08      0.57    0.13    1.00
  HS02004770HS02004777 CONDUIT    681.67     0  02:58      0.97    1.25    1.00
  HS02004799HS02004480 CONDUIT   1731.67     0  03:01      2.47    2.19    1.00
  HS02004792HS02004799 CONDUIT   1612.02     0  02:59      2.30    0.99    1.00
  HS02004788HS02004792 CONDUIT    885.87     0  02:58      1.52    0.59    1.00
  HS02004785HS02004788 CONDUIT    681.80     0  02:58      1.43    5.14    1.00
  HS02004777HS02004785 CONDUIT    681.69     0  02:58      0.97    0.84    1.00
  HS02004480HS02004478 CONDUIT   1985.65     0  03:01      2.84    8.36    1.00
  HS02004479HS02004480 CONDUIT    254.20     0  03:01      0.53    0.25    1.00
  HS02004862HS02004870 CONDUIT    941.46     0  03:01      1.93    1.02    0.70
  HS02004848HS02004852 CONDUIT    781.44     0  03:01      1.40    0.88    0.80
  HS02004856HS02004862 CONDUIT    837.35     0  03:01      1.62    0.83    0.74
  HS02004852HS02004856 CONDUIT    780.63     0  03:01      1.36    0.89    0.82
  HS02004802HS02004478 CONDUIT    398.13     0  03:07      0.75    0.35    1.00
  HS02004478WS02006287 CONDUIT   1985.82     0  03:01      2.86    0.56    1.00
  HS02004817HS02004807 CONDUIT    291.80     0  03:08      0.47    0.17    1.00
  HS02004807HS02004802 CONDUIT    367.86     0  03:07      0.65    0.70    1.00
  YS02001759YS02001757 CONDUIT   1407.29     0  03:08      1.79    1.00    1.00
  YS02001762YS02001759 CONDUIT    722.18     0  02:50      0.92    0.83    1.00
  YS02001765YS02001762 CONDUIT    722.03     0  02:50      0.92    0.68    1.00
  YS02001770YS02001767 CONDUIT    722.49     0  02:50      0.92    2.86    1.00
  YS02001774YS02001770 CONDUIT    851.47     0  02:50      1.08    0.54    1.00
  YS02001779YS02001774 CONDUIT    851.37     0  03:03      1.08    0.43    1.00
  YS02001649YS02001757 CONDUIT    816.87     0  01:23      1.04    0.50    1.00
  YS02001767YS02001765 CONDUIT    722.02     0  03:01      0.92    0.91    1.00
  YS02006561YS02001783 CONDUIT   1108.81     0  03:01      2.21    0.57    1.00
  YS02001783YS02001784 CONDUIT   1108.82     0  03:01      2.21    1.53    1.00
  YS02001784YS02001785 CONDUIT   1109.87     0  03:01      2.21    2.58    1.00
  YS02001788YS02001790 CONDUIT   1110.03     0  03:01      2.32    0.82    1.00
  YS02001790YS02001791 CONDUIT   1110.17     0  03:01      2.69    1.21    1.00
  YS02001791YS02001793 CONDUIT   1110.24     0  03:01      4.96    0.48    1.00
  YS02001910YS02001907 CONDUIT   1992.45     0  03:04      2.54    1.12    1.00
  YS02001786YS02001788 CONDUIT   1109.97     0  03:01      2.23    2.14    1.00
  YS02001915YS02001910 CONDUIT   1992.45     0  03:04      2.54    0.99    1.00
  YS02001918YS02001915 CONDUIT   1221.69     0  03:11      1.56    0.67    1.00
  YS02001923YS02001920 CONDUIT   1536.03     0  03:01      1.96    0.69    1.00
  YS02001926YS02001923 CONDUIT   1535.93     0  03:01      1.96    2.19    1.00
  YS02001929YS02001926 CONDUIT   1535.71     0  03:01      1.96    0.73    1.00
  YS02001920YS02001918 CONDUIT   1539.18     0  03:01      1.96    1.49    1.00
  YS02001629YS02163301 CONDUIT   1138.44     0  02:50      1.45    1.40    1.00
  YS02001619YS02001622 CONDUIT   1053.24     0  02:35      1.34    1.55    1.00
  YS02001622YS02001625 CONDUIT   1053.24     0  02:35      1.34    0.56    1.00
  YS02001625YS02001629 CONDUIT    451.78     0  03:22      0.58    0.21    1.00
  YS02163301YS02001633 CONDUIT   1138.44     0  02:50      1.45    1.07    1.00
  YS02163601YS02164001 CONDUIT    905.49     0  03:08      1.15    0.80    1.00
  YS02164001YS02001641 CONDUIT    905.63     0  03:08      1.15    1.24    1.00
  YS02001641YS02001644 CONDUIT    905.43     0  03:08      1.15    2.93    1.00
  YS02001647YS02001649 CONDUIT    846.70     0  02:50      1.08    0.45    1.00
  YS02006553YS02006556 CONDUIT   2088.14     0  03:01      2.66    1.79    1.00
  YS02006556YS02006558 CONDUIT   2087.97     0  03:01      2.66    1.65    1.00
  YSB6556YSB1171       CONDUIT    142.18     0  03:01      0.37    0.15    1.00
  YS02001907YS02006553 CONDUIT   2088.51     0  03:01      2.32    2.46    1.00
  YS02006558YS02006561 CONDUIT   1108.77     0  03:01      3.92    2.45    1.00
  YS02001633YS02163601 CONDUIT    905.39     0  03:08      1.15    0.95    1.00
  YS02001644YS02001647 CONDUIT    846.70     0  02:50      1.08    0.50    1.00
  YS02001745YS02001748 CONDUIT   2846.87     0  03:01      3.62    1.10    1.00
  YS02001748YS02001751 CONDUIT   2353.61     0  02:50      3.00    1.19    1.00
  YS02001751YS02001754 CONDUIT   2353.67     0  02:50      3.00    1.13    1.00
  YS02001754YS02001757 CONDUIT   2353.82     0  02:50      3.00    0.95    1.00
  YS02001882YS02001884 CONDUIT    104.70     0  01:23      0.28    0.12    1.00
  YS02001884YS02001887 CONDUIT     99.19     0  01:23      0.21    0.13    1.00
  YS02001890YS02001895 CONDUIT    582.67     0  01:25      0.74    0.27    1.00
  YS02001895YS02001898 CONDUIT    582.99     0  01:25      0.76    1.01    1.00
  YS02001898YS02001901 CONDUIT    583.70     0  01:25      0.74    0.38    1.00
  YS02001901YS02001904 CONDUIT    583.47     0  01:25      0.74    0.90    1.00
  YS02001904YS02001907 CONDUIT    584.13     0  01:25      0.74    0.20    1.00
  YS02001887YS02001890 CONDUIT   2052.03     0  03:08      2.61    3.51    1.00
  YS02001652YS02001649 CONDUIT   2428.58     0  03:02      3.09    1.20    1.00
  YS02001655YS02001652 CONDUIT   2428.58     0  03:02      3.09    1.18    1.00
  YS02001658YS02001655 CONDUIT   2731.29     0  03:01      3.48    1.16    1.00
  YS02001661YS02001658 CONDUIT   2783.08     0  03:01      3.54    1.09    1.00
  YS02001664YS02001661 CONDUIT   2783.08     0  03:01      3.54    0.87    1.00
  YSB1154YSB6556       CONDUIT    142.17     0  03:01      0.37    0.26    1.00
  YSB1174YSB1171       CONDUIT    111.80     0  03:01      0.29    0.17    1.00
  YSB1171HS02004479    CONDUIT    253.99     0  03:01      0.54    0.17    1.00
  HS02004881HS02006253 CONDUIT   1252.73     0  03:01      3.05    0.24    0.66
  YS02001793JiankangQianchi CONDUIT   1110.23     0  03:01      1.41    0.09    1.00
  YS02001757CaochengTiaoxuchi CONDUIT   2230.58     0  01:38      3.86    0.98    1.00
  WSF200WS02003060     CONDUIT   1191.15     0  03:01      2.83    0.26    0.40
  1                    CONDUIT    947.00     0  03:03      3.28    0.33    0.40
  CC-Pump-1            PUMP         0.00     0  00:00              0.00
  CC-Pump-2            PUMP       200.00     0  01:17              1.00
  JK-Pump-1            PUMP         0.00     0  00:00              0.00
  JK-Pump-2            PUMP         0.00     0  00:00              0.00
  XR-Pump-1            PUMP        95.00     0  00:00              1.00
  XR-Pump-2            PUMP         0.00     0  00:00              0.00
  XR-Pump-3            PUMP         0.00     0  00:00              0.00
  XR-Pump-4            PUMP        95.00     0  00:00              1.00
  3                    WEIR      1093.46     0  03:02                      0.48
  5                    WEIR      1157.44     0  03:01                      0.49
  6                    WEIR       458.66     0  03:03                      0.27
  
  
  ***************************
  Flow Classification Summary
  ***************************
  
  -------------------------------------------------------------------------------------
                      Adjusted    ---------- Fraction of Time in Flow Class ---------- 
                       /Actual         Up    Down  Sub   Sup   Up    Down  Norm  Inlet 
  Conduit               Length    Dry  Dry   Dry   Crit  Crit  Crit  Crit  Ltd   Ctrl  
  -------------------------------------------------------------------------------------
  WS02003066WSF200        1.00   0.05  0.00  0.00  0.00  0.95  0.00  0.00  0.59  0.00
  WS02006287WS02006284    1.00   0.02  0.01  0.00  0.57  0.27  0.00  0.13  0.61  0.00
  WS02006284WS02006280    1.00   0.02  0.00  0.00  0.08  0.02  0.00  0.88  0.00  0.00
  WS02006280WS02006229    1.00   0.02  0.00  0.00  0.13  0.06  0.00  0.79  0.00  0.00
  WS02006229WS02006228    1.00   0.00  0.00  0.00  1.00  0.00  0.00  0.00  0.00  0.00
  WS02006256WS02006235    1.00   0.03  0.00  0.00  0.97  0.00  0.00  0.00  0.00  0.00
  WS02006253WS02006251    1.00   0.01  0.01  0.00  0.66  0.00  0.33  0.00  0.00  0.00
  WS02006252WS02006251    1.00   0.03  0.00  0.00  0.00  0.00  0.97  0.00  0.00  0.00
  WS02006251WS02006249    1.00   0.00  0.00  0.00  1.00  0.00  0.00  0.00  0.66  0.00
  WS02006249WS02006248    1.00   0.00  0.02  0.00  0.32  0.00  0.65  0.00  0.00  0.00
  WS02006248WS02006247    1.00   0.02  0.00  0.00  0.97  0.00  0.00  0.01  0.57  0.00
  WS02006247WS02006245    1.00   0.02  0.00  0.00  0.96  0.00  0.00  0.01  0.00  0.00
  WS02006245WS02006243    1.00   0.02  0.00  0.00  0.96  0.00  0.00  0.02  0.00  0.00
  WS02006243WS02006242    1.00   0.03  0.00  0.00  0.96  0.00  0.00  0.01  0.64  0.00
  WS02006242WS02006240    1.00   0.03  0.01  0.00  0.96  0.00  0.01  0.00  0.00  0.00
  WS02006240WS02006239    1.00   0.03  0.00  0.00  0.97  0.00  0.00  0.00  0.00  0.00
  WS02006239WS02006238    1.00   0.03  0.00  0.00  0.97  0.00  0.00  0.00  0.00  0.00
  WS02006238WS02006235    1.00   0.03  0.00  0.00  0.31  0.66  0.00  0.00  0.00  0.00
  WS02006235WS02006234    1.00   0.03  0.00  0.00  0.04  0.00  0.58  0.35  0.00  0.00
  WS02006234WS02006232    1.00   0.03  0.00  0.00  0.97  0.00  0.00  0.00  0.48  0.00
  WS02006232WS02006231    1.00   0.03  0.00  0.00  0.97  0.00  0.00  0.00  0.00  0.00
  WS02006231WS02006230    1.00   0.02  0.00  0.00  0.40  0.00  0.58  0.00  0.00  0.00
  WS02006230WS02006229    1.00   0.00  0.00  0.00  0.99  0.00  0.00  0.01  0.00  0.00
  WS02006228WS02006109    1.00   0.00  0.00  0.00  1.00  0.00  0.00  0.00  0.00  0.00
  WS02006116WS02004401    1.00   0.02  0.00  0.00  0.98  0.00  0.00  0.00  0.00  0.00
  WS02006115WS02006116    1.00   0.02  0.00  0.00  0.97  0.00  0.00  0.01  0.00  0.00
  WS02006113WS02006111    1.00   0.01  0.00  0.00  0.24  0.75  0.00  0.00  0.02  0.00
  WS02006112WS02006115    1.00   0.01  0.01  0.00  0.98  0.00  0.00  0.00  0.00  0.00
  WS02006111WS02006112    1.00   0.01  0.00  0.00  0.99  0.00  0.00  0.00  0.69  0.00
  WS02006110WS02006113    1.00   0.00  0.01  0.00  0.99  0.00  0.00  0.00  0.00  0.00
  WS02006109WS02006110    1.00   0.00  0.00  0.00  1.00  0.00  0.00  0.00  0.00  0.00
  WS02004411WS02004412    1.00   0.03  0.00  0.00  0.96  0.00  0.00  0.00  0.00  0.00
  WS02004401WS02004402    1.00   0.02  0.00  0.00  0.98  0.00  0.00  0.00  0.01  0.00
  WS02004413WS02003067    1.00   0.04  0.01  0.00  0.00  0.00  0.96  0.00  0.00  0.00
  WS02004412WS02004413    1.00   0.04  0.00  0.00  0.96  0.00  0.00  0.00  0.00  0.00
  WS02004410WS02004411    1.00   0.03  0.00  0.00  0.97  0.00  0.00  0.00  0.00  0.00
  WS02004409WS02004410    1.00   0.03  0.00  0.00  0.97  0.00  0.00  0.00  0.00  0.00
  WS02004407WS02004409    1.00   0.03  0.00  0.00  0.96  0.01  0.00  0.00  0.70  0.00
  WS02004406WS02004407    1.00   0.00  0.03  0.00  0.97  0.00  0.00  0.00  0.00  0.00
  WS02004405WS02004406    1.00   0.00  0.00  0.00  1.00  0.00  0.00  0.00  0.04  0.00
  WS02004404WS02004405    1.00   0.00  0.00  0.00  1.00  0.00  0.00  0.00  0.00  0.00
  WS02004403WS02004404    1.00   0.00  0.02  0.00  0.98  0.00  0.00  0.00  0.04  0.00
  WS02004402WS02004403    1.00   0.02  0.00  0.00  0.98  0.00  0.00  0.00  0.00  0.00
  WS02004139WS02001211    1.00   0.00  0.00  0.00  1.00  0.00  0.00  0.00  0.00  0.00
  WS02004138WS02004139    1.00   0.00  0.00  0.00  0.00  0.28  0.00  0.72  0.24  0.00
  WS02003067WS02003066    1.00   0.04  0.00  0.00  0.95  0.00  0.00  0.00  0.00  0.00
  WS02001213WS02003059    1.00   0.00  0.00  0.00  1.00  0.00  0.00  0.00  0.00  0.00
  WS02001212WS02001213    1.00   0.00  0.55  0.00  0.44  0.00  0.00  0.00  0.46  0.00
  WS02001211WS02001212    1.00   0.00  0.00  0.00  1.00  0.00  0.00  0.00  0.57  0.00
  WS02003072WS02003073    1.00   0.00  0.00  0.00  0.00  0.00  0.00  1.00  0.00  0.00
  WS02003069WS02003072    1.00   0.00  0.00  0.00  1.00  0.00  0.00  0.00  0.73  0.00
  WS02003060WS02003069    1.00   0.00  0.00  0.00  0.99  0.01  0.00  0.00  0.73  0.00
  WS02003059WS02003060    1.00   0.00  0.00  0.00  1.00  0.00  0.00  0.00  0.08  0.00
  HS02004901HS02004770    1.00   0.02  0.00  0.00  0.98  0.00  0.00  0.00  0.00  0.00
  HS02004876HS02004881    1.00   0.00  0.00  0.00  0.67  0.33  0.00  0.00  0.00  0.00
  HS02004870HS02004876    1.00   0.00  0.00  0.00  1.00  0.00  0.00  0.00  0.82  0.00
  HS02004842HS02004848    1.00   0.00  0.02  0.00  0.98  0.00  0.00  0.00  0.50  0.00
  HS02004837HS02004842    1.00   0.00  0.00  0.00  1.00  0.00  0.00  0.00  0.11  0.00
  HS02004830HS02004837    1.00   0.00  0.00  0.00  1.00  0.00  0.00  0.00  0.80  0.00
  HS02004824HS02004830    1.00   0.00  0.00  0.00  1.00  0.00  0.00  0.00  0.01  0.00
  HS02004817HS02004824    1.00   0.00  0.00  0.00  1.00  0.00  0.00  0.00  0.74  0.00
  HS02004770HS02004777    1.00   0.00  0.02  0.00  0.98  0.00  0.00  0.00  0.00  0.00
  HS02004799HS02004480    1.00   0.00  0.01  0.00  0.98  0.00  0.02  0.00  0.00  0.00
  HS02004792HS02004799    1.00   0.00  0.00  0.00  1.00  0.00  0.00  0.00  0.76  0.00
  HS02004788HS02004792    1.00   0.00  0.00  0.00  1.00  0.00  0.00  0.00  0.91  0.00
  HS02004785HS02004788    1.00   0.00  0.00  0.00  1.00  0.00  0.00  0.00  0.00  0.00
  HS02004777HS02004785    1.00   0.00  0.00  0.00  1.00  0.00  0.00  0.00  0.10  0.00
  HS02004480HS02004478    1.00   0.02  0.00  0.00  0.62  0.00  0.00  0.36  0.00  0.00
  HS02004479HS02004480    1.00   0.01  0.00  0.00  0.99  0.00  0.00  0.00  0.09  0.00
  HS02004862HS02004870    1.00   0.00  0.00  0.00  1.00  0.00  0.00  0.00  0.01  0.00
  HS02004848HS02004852    1.00   0.02  0.00  0.00  0.98  0.00  0.00  0.00  0.69  0.00
  HS02004856HS02004862    1.00   0.00  0.02  0.00  0.98  0.00  0.00  0.00  0.72  0.00
  HS02004852HS02004856    1.00   0.02  0.00  0.00  0.98  0.00  0.00  0.00  0.60  0.00
  HS02004802HS02004478    1.00   0.02  0.00  0.00  0.98  0.00  0.00  0.00  0.01  0.00
  HS02004478WS02006287    1.00   0.02  0.00  0.00  0.67  0.31  0.00  0.00  0.55  0.00
  HS02004817HS02004807    1.00   0.00  0.02  0.00  0.98  0.00  0.00  0.00  0.01  0.00
  HS02004807HS02004802    1.00   0.02  0.00  0.00  0.98  0.00  0.00  0.00  0.00  0.00
  YS02001759YS02001757    1.00   0.00  0.00  0.00  1.00  0.00  0.00  0.00  0.14  0.00
  YS02001762YS02001759    1.00   0.00  0.00  0.00  1.00  0.00  0.00  0.00  0.01  0.00
  YS02001765YS02001762    1.00   0.00  0.00  0.00  1.00  0.00  0.00  0.00  0.12  0.00
  YS02001770YS02001767    1.00   0.00  0.00  0.00  1.00  0.00  0.00  0.00  0.00  0.00
  YS02001774YS02001770    1.00   0.00  0.02  0.00  0.98  0.00  0.00  0.00  0.01  0.00
  YS02001779YS02001774    1.00   0.00  0.00  0.00  1.00  0.00  0.00  0.00  0.14  0.00
  YS02001649YS02001757    1.00   0.00  0.00  0.00  1.00  0.00  0.00  0.00  0.14  0.00
  YS02001767YS02001765    1.00   0.00  0.00  0.00  1.00  0.00  0.00  0.00  0.00  0.00
  YS02006561YS02001783    1.00   0.02  0.00  0.00  0.96  0.01  0.00  0.00  0.31  0.00
  YS02001783YS02001784    1.00   0.00  0.02  0.00  0.98  0.00  0.00  0.00  0.00  0.00
  YS02001784YS02001785    1.00   0.00  0.00  0.00  1.00  0.00  0.00  0.00  0.13  0.00
  YS02001788YS02001790    1.00   0.00  0.00  0.00  0.98  0.02  0.00  0.00  0.15  0.00
  YS02001790YS02001791    1.00   0.00  0.00  0.00  0.96  0.04  0.00  0.00  0.01  0.00
  YS02001791YS02001793    1.00   0.00  0.00  0.00  0.96  0.04  0.00  0.00  0.00  0.00
  YS02001910YS02001907    1.00   0.00  0.00  0.00  1.00  0.00  0.00  0.00  0.11  0.00
  YS02001786YS02001788    1.00   0.00  0.00  0.00  0.98  0.02  0.00  0.00  0.00  0.00
  YS02001915YS02001910    1.00   0.00  0.00  0.00  1.00  0.00  0.00  0.00  0.11  0.00
  YS02001918YS02001915    1.00   0.00  0.00  0.00  1.00  0.00  0.00  0.00  0.35  0.00
  YS02001923YS02001920    1.00   0.00  0.00  0.00  1.00  0.00  0.00  0.00  0.50  0.00
  YS02001926YS02001923    1.00   0.00  0.01  0.00  0.54  0.00  0.45  0.00  0.00  0.00
  YS02001929YS02001926    1.00   0.00  0.02  0.00  0.98  0.00  0.00  0.00  0.42  0.00
  YS02001920YS02001918    1.00   0.00  0.00  0.00  1.00  0.00  0.00  0.00  0.00  0.00
  YS02001629YS02163301    1.00   0.02  0.00  0.00  0.98  0.00  0.00  0.00  0.00  0.00
  YS02001619YS02001622    1.00   0.02  0.00  0.00  0.98  0.00  0.00  0.00  0.00  0.00
  YS02001622YS02001625    1.00   0.02  0.00  0.00  0.98  0.00  0.00  0.00  0.01  0.00
  YS02001625YS02001629    1.00   0.02  0.00  0.00  0.97  0.00  0.01  0.00  0.00  0.00
  YS02163301YS02001633    1.00   0.00  0.02  0.00  0.98  0.00  0.00  0.00  0.00  0.00
  YS02163601YS02164001    1.00   0.00  0.01  0.00  0.99  0.00  0.00  0.00  0.00  0.00
  YS02164001YS02001641    1.00   0.00  0.01  0.00  0.99  0.00  0.00  0.00  0.05  0.00
  YS02001641YS02001644    1.00   0.00  0.00  0.00  1.00  0.00  0.00  0.00  0.00  0.00
  YS02001647YS02001649    1.00   0.00  0.02  0.00  0.98  0.00  0.00  0.00  0.01  0.00
  YS02006553YS02006556    1.00   0.00  0.00  0.00  1.00  0.00  0.00  0.00  0.03  0.00
[...]
  YS02001790YS02001791        6.63      6.63      6.64      3.47         3.47
  YS02001791YS02001793        6.64      6.64      6.66      0.01         0.01
  YS02001910YS02001907        3.93      3.93      4.24      1.43         1.43
  YS02001786YS02001788        4.12      4.13      4.12      4.37         4.11
  YS02001915YS02001910        3.75      3.75      3.93      0.01         0.01
  YS02001918YS02001915        3.53      3.53      3.75      0.01         0.01
  YS02001923YS02001920        3.38      3.38      3.57      0.01         0.01
  YS02001926YS02001923        2.13      2.13      2.28      1.57         0.01
  YS02001929YS02001926        1.62      1.62      2.28      0.01         0.01
  YS02001920YS02001918        3.52      3.53      3.57      0.80         0.01
  YS02001629YS02163301        6.66      6.66      6.66      1.12         0.01
  YS02001619YS02001622        6.64      6.64      6.65      2.24         2.25
  YS02001622YS02001625        6.65      6.65      6.65      0.01         0.01
  YS02001625YS02001629        6.64      6.64      6.65      0.01         0.01
  YS02163301YS02001633        6.66      6.66      6.67      0.72         0.01
  YS02163601YS02164001        6.67      6.67      6.67      0.01         0.01
  YS02164001YS02001641        6.67      6.67      6.67      1.09         1.11
  YS02001641YS02001644        6.67      6.67      6.67      4.51         4.50
  YS02001647YS02001649        6.65      6.65      6.67      0.01         0.01
  YS02006553YS02006556        4.08      4.08      4.29      0.72         0.73
  YS02006556YS02006558        4.14      4.14      4.34      0.63         0.01
  YSB6556YSB1171              1.01      1.01      2.00      0.01         0.01
  YS02001907YS02006553        4.76      4.76      4.96      1.03         1.03
  YS02006558YS02006561        3.82      4.05      3.82      4.61         3.82
  YS02001633YS02163601        6.67      6.67      6.67      0.01         0.01
  YS02001644YS02001647        6.65      6.65      6.67      0.01         0.01
  YS02001745YS02001748        2.50      2.50      6.62      0.17         0.17
  YS02001748YS02001751        6.63      6.63      6.63      0.68         0.68
  YS02001751YS02001754        6.63      6.63      6.65      0.60         0.60
  YS02001754YS02001757        6.65      6.65      6.69      0.01         0.01
  YS02001882YS02001884        3.74      3.74      3.77      0.01         0.01
  YS02001884YS02001887        3.82      3.82      3.85      0.01         0.01
  YS02001890YS02001895        3.72      3.72      3.93      0.01         0.01
  YS02001895YS02001898        3.71      3.71      3.72      0.01         0.01
  YS02001898YS02001901        3.73      3.73      3.82      0.01         0.01
  YS02001901YS02001904        3.80      3.80      3.82      0.01         0.01
  YS02001904YS02001907        3.80      3.80      4.32      0.01         0.01
  YS02001887YS02001890        3.87      3.87      3.90      2.42         0.01
  YS02001652YS02001649        6.65      6.65      6.67      0.62         0.62
  YS02001655YS02001652        6.64      6.64      6.65      0.58         0.58
  YS02001658YS02001655        6.62      6.62      6.64      0.33         0.33
  YS02001661YS02001658        2.75      2.75      6.62      0.18         0.19
  YS02001664YS02001661        1.29      1.29      4.02      0.01         0.01
  YSB1154YSB6556              1.01      1.01      1.57      0.01         0.01
  YSB1174YSB1171              1.33      1.33      1.90      0.01         0.01
  YSB1171HS02004479           0.46      0.46      1.58      0.01         0.01
  HS02004881HS02006253        0.01      0.01      0.02      0.01         0.01
  YS02001793JiankangQianchi        6.65      6.65      7.99      0.01         0.01
  YS02001757CaochengTiaoxuchi        6.21      6.21      6.69      0.01         0.01
  
  
  ***************
  Pumping Summary
  ***************
  
  ---------------------------------------------------------------------------------------------------------
                                                  Min       Avg       Max     Total     Power    % Time Off
                        Percent   Number of      Flow      Flow      Flow    Volume     Usage    Pump Curve
  Pump                 Utilized   Start-Ups       LPS       LPS       LPS  10^6 ltr     Kw-hr    Low   High
  ---------------------------------------------------------------------------------------------------------
  CC-Pump-1                0.00           0      0.00      0.00      0.00     0.000      0.00    0.0    0.0
  CC-Pump-2               84.24           1      0.00    199.65    200.00     4.838      3.62    0.0    3.6
  JK-Pump-1                0.00           0      0.00      0.00      0.00     0.000      0.00    0.0    0.0
  JK-Pump-2                0.00           0      0.00      0.00      0.00     0.000      0.00    0.0    0.0
  XR-Pump-1              100.00           1      0.00     95.00     95.00     2.736     15.45    0.0    0.0
  XR-Pump-2                0.00           0      0.00      0.00      0.00     0.000      0.00    0.0    0.0
  XR-Pump-3                0.00           0      0.00      0.00      0.00     0.000      0.00    0.0    0.0
  XR-Pump-4              100.00           1      0.00     95.00     95.00     2.736     15.45    0.0    0.0
  
  
  ***************************
  Link Pollutant Load Summary
  ***************************
  
  ------------------------------------------------------------------------------------------
                                 COD            SS            TN            TP         NH4-N
  Link                            kg            kg            kg            kg            kg
  ------------------------------------------------------------------------------------------
  WS02003066WSF200          1016.696      1897.684        28.289         2.369        14.543
  WS02006287WS02006284      1548.966      2892.256        42.989         3.573        22.067
  WS02006284WS02006280      1549.016      2892.015        43.033         3.579        22.095
  WS02006280WS02006229      1549.199      2892.481        43.033         3.579        22.095
  WS02006229WS02006228       951.930      1779.471        27.212         2.313        14.103
  WS02006256WS02006235         0.125         0.250         0.003         0.000         0.002
  WS02006253WS02006251       395.287       740.047        10.842         0.832         5.498
  WS02006252WS02006251       619.030      1248.188        12.333         0.875         6.020
  WS02006251WS02006249       173.481       338.892         4.020         0.298         2.002
  WS02006249WS02006248       172.968       337.813         4.009         0.297         1.997
  WS02006248WS02006247       172.965       337.839         4.009         0.297         1.996
  WS02006247WS02006245       172.707       337.314         4.003         0.296         1.994
  WS02006245WS02006243       172.487       336.892         3.998         0.296         1.991
  WS02006243WS02006242       172.360       336.708         3.993         0.296         1.988
  WS02006242WS02006240       171.953       335.898         3.984         0.295         1.984
  WS02006240WS02006239       171.801       335.611         3.980         0.295         1.982
  WS02006239WS02006238       171.955       336.034         3.981         0.295         1.982
  WS02006238WS02006235       171.959       336.024         3.982         0.295         1.983
  WS02006235WS02006234       596.510      1110.963        15.792         1.262         7.974
  WS02006234WS02006232       597.364      1112.926        15.805         1.263         7.979
  WS02006232WS02006231       597.224      1112.444        15.808         1.264         7.982
  WS02006231WS02006230       597.341      1112.673        15.812         1.264         7.984
  WS02006230WS02006229       597.643      1112.767        15.839         1.267         7.999
  WS02006228WS02006109       951.525      1779.097        27.127         2.301        14.049
  WS02006116WS02004401      1028.306      1916.894        29.286         2.493        15.162
  WS02006115WS02006116      1028.826      1917.518        29.382         2.505        15.224
  WS02006113WS02006111       959.564      1793.015        27.778         2.382        14.452
  WS02006112WS02006115      1030.347      1920.467        29.462         2.515        15.272
  WS02006111WS02006112       957.970      1789.558        27.717         2.375        14.416
  WS02006110WS02006113       959.316      1792.267        27.787         2.383        14.459
  WS02006109WS02006110       959.758      1792.592        27.869         2.394        14.511
  WS02004411WS02004412      1020.884      1905.540        28.532         2.399        14.690
  WS02004401WS02004402      1026.851      1914.301        29.180         2.480        15.097
  WS02004413WS02003067      1016.980      1897.867        28.341         2.376        14.576
  WS02004412WS02004413      1019.794      1903.627        28.439         2.387        14.633
  WS02004410WS02004411      1021.291      1906.043        28.590         2.406        14.728
  WS02004409WS02004410      1021.856      1907.033        28.637         2.412        14.757
  WS02004407WS02004409      1021.941      1906.971        28.672         2.416        14.779
  WS02004406WS02004407      1021.769      1906.450        28.683         2.418        14.787
  WS02004405WS02004406      1023.830      1909.642        28.867         2.441        14.901
  WS02004404WS02004405      1024.554      1910.323        29.002         2.458        14.987
  WS02004403WS02004404      1024.327      1910.047        28.966         2.453        14.964
  WS02004402WS02004403      1025.776      1912.653        29.065         2.465        15.025
  WS02004139WS02001211       255.580       466.249        10.837         1.135         6.174
  WS02004138WS02004139       534.596       909.238        34.219         3.904        20.410
  WS02003067WS02003066      1016.917      1898.193        28.293         2.370        14.545
  WS02001213WS02003059       208.123       390.612         6.241         0.560         3.300
  WS02001212WS02001213       204.382       384.123         5.925         0.520         3.103
  WS02001211WS02001212       204.631       384.926         5.936         0.522         3.111
  WS02003072WS02003073       929.246      1701.697        33.550         3.249        18.434
  WS02003069WS02003072       932.287      1707.928        33.691         3.266        18.519
  WS02003060WS02003069       930.483      1704.923        33.538         3.247        18.424
  WS02003059WS02003060       209.792       392.613         6.344         0.570         3.358
  HS02004901HS02004770        81.566       149.697         2.101         0.170         1.048
  HS02004876HS02004881       356.994       669.036         9.870         0.757         5.003
  HS02004870HS02004876       301.849       565.587         8.464         0.649         4.290
  HS02004842HS02004848        67.481       113.181         2.407         0.204         1.288
  HS02004837HS02004842        70.608       116.024         2.903         0.267         1.603
  HS02004830HS02004837       147.395       267.981         6.577         0.689         3.790
  HS02004824HS02004830       146.745       267.048         6.582         0.690         3.796
  HS02004817HS02004824       251.339       483.076         8.904         0.844         4.940
  HS02004770HS02004777       328.377       623.992         8.628         0.643         4.223
  HS02004799HS02004480      1009.511      1875.567        27.089         2.188        13.605
  HS02004792HS02004799       935.247      1733.693        25.242         2.056        12.676
  HS02004788HS02004792       466.826       876.655        13.137         1.060         6.631
  HS02004785HS02004788       329.730       626.114         8.768         0.661         4.311
  HS02004777HS02004785       329.330       625.693         8.706         0.653         4.272
  HS02004480HS02004478      1212.635      2244.958        32.259         2.609        16.244
  HS02004479HS02004480       208.399       378.971         5.479         0.457         2.826
  HS02004862HS02004870       259.769       481.761         7.407         0.580         3.760
  HS02004848HS02004852       173.106       315.475         5.075         0.403         2.591
  HS02004856HS02004862       208.635       384.505         5.974         0.467         3.045
  HS02004852HS02004856       173.120       315.481         5.075         0.403         2.591
  HS02004802HS02004478       337.814       649.810        10.807         0.973         5.868
  HS02004478WS02006287      1548.764      2891.611        43.005         3.576        22.077
  HS02004817HS02004807       249.991       480.616         8.763         0.826         4.852
  HS02004807HS02004802       337.824       649.926        10.828         0.976         5.882
  YS02001759YS02001757      1473.709      2831.147        34.185         2.592        17.161
  YS02001762YS02001759       733.711      1376.372        18.059         1.376         9.134
  YS02001765YS02001762       736.215      1383.046        18.102         1.379         9.155
  YS02001770YS02001767       751.365      1417.720        18.305         1.390         9.244
  YS02001774YS02001770      1071.466      2043.263        26.409         1.913        13.293
  YS02001779YS02001774      1072.173      2044.833        26.479         1.923        13.339
  YS02001649YS02001757       978.695      1859.138        23.780         1.726        11.909
  YS02001767YS02001765       741.239      1394.913        18.181         1.385         9.193
  YS02006561YS02001783      1638.056      3002.146        42.970         3.278        21.844
  YS02001783YS02001784      1637.883      3001.926        42.961         3.277        21.838
  YS02001784YS02001785      1645.506      3014.312        43.683         3.367        22.290
  YS02001788YS02001790      1645.725      3014.869        43.730         3.374        22.321
  YS02001790YS02001791      1646.509      3016.298        43.814         3.385        22.375
  YS02001791YS02001793      1645.834      3015.217        43.787         3.383        22.360
  YS02001910YS02001907      2433.817      4717.713        58.526         4.257        29.438
  YS02001786YS02001788      1645.584      3014.558        43.701         3.370        22.302
  YS02001915YS02001910      2432.279      4714.708        58.463         4.249        29.400
  YS02001918YS02001915      1530.510      2914.633        36.201         2.852        18.349
  YS02001923YS02001920      1555.796      2971.624        35.266         2.689        17.638
  YS02001926YS02001923      1552.642      2965.906        35.143         2.677        17.568
  YS02001929YS02001926      1549.521      2960.334        35.019         2.664        17.497
  YS02001920YS02001918      1577.837      3007.871        37.255         2.935        18.876
  YS02001629YS02163301      1211.361      2292.976        28.308         2.219        14.150
  YS02001619YS02001622      1134.589      2188.055        26.793         1.940        13.098
  YS02001622YS02001625      1135.518      2189.945        26.799         1.941        13.100
  YS02001625YS02001629       670.752      1259.673        15.787         1.227         7.880
  YS02163301YS02001633      1213.085      2295.306        28.364         2.224        14.181
  YS02163601YS02164001      1243.469      2302.144        29.989         2.346        15.041
  YS02164001YS02001641      1245.047      2305.035        30.003         2.346        15.046
  YS02001641YS02001644      1248.416      2311.238        30.050         2.350        15.068
  YS02001647YS02001649      1033.728      1917.240        26.184         1.967        12.997
  YS02006553YS02006556      1332.678      2412.575        35.974         2.780        18.370
  YS02006556YS02006558      1329.854      2405.389        35.914         2.773        18.336
  YSB6556YSB1171             122.278       222.217         3.164         0.263         1.629
  YS02001907YS02006553      1336.616      2422.435        36.063         2.790        18.422
  YS02006558YS02006561      1637.812      3001.646        42.968         3.277        21.843
  YS02001633YS02163601      1243.457      2301.998        29.958         2.341        15.020
  YS02001644YS02001647      1040.555      1930.610        26.296         1.975        13.051
  YS02001745YS02001748      1884.325      3700.259        44.586         3.113        22.232
  YS02001748YS02001751      1844.290      3623.381        43.623         3.047        21.756
  YS02001751YS02001754      1844.497      3623.959        43.641         3.050        21.769
  YS02001754YS02001757      1846.550      3627.526        43.829         3.075        21.887
  YS02001882YS02001884         9.529        17.635         0.172         0.013         0.084
  YS02001884YS02001887         9.704        18.005         0.176         0.013         0.086
  YS02001890YS02001895       876.380      1621.255        21.273         1.704        10.821
  YS02001895YS02001898       876.606      1621.627        21.281         1.705        10.825
  YS02001898YS02001901       875.660      1620.222        21.241         1.702        10.803
  YS02001901YS02001904       875.632      1620.291        21.258         1.704        10.815
  YS02001904YS02001907       877.339      1622.543        21.385         1.718        10.890
  YS02001887YS02001890      2584.093      4833.304        61.906         4.978        31.409
  YS02001652YS02001649      1825.244      3464.689        44.124         3.410        21.653
  YS02001655YS02001652      1825.381      3464.883        44.131         3.411        21.657
  YS02001658YS02001655      1847.165      3503.871        44.657         3.448        21.907
  YS02001661YS02001658      1848.107      3505.434        44.687         3.450        21.922
  YS02001664YS02001661      1854.351      3513.081        44.964         3.470        22.055
  YSB1154YSB6556             122.116       222.255         3.119         0.257         1.600
  YSB1174YSB1171              84.794       154.763         2.202         0.181         1.127
  YSB1171HS02004479          208.146       378.476         5.483         0.458         2.830
  HS02004881HS02006253       384.320       721.130        10.563         0.808         5.354
  YS02001793JiankangQianchi      1644.671      3013.364        43.740         3.378        22.334
  YS02001757CaochengTiaoxuchi       950.304      1890.694        19.788         1.406         9.721
  WSF200WS02003060          1017.147      1898.843        28.283         2.369        14.538
  1                          946.193      1732.614        34.755         3.397        19.178
  CC-Pump-1                    0.000         0.000         0.000         0.000         0.000
  CC-Pump-2                  619.068      1248.260        12.334         0.875         6.021
  JK-Pump-1                    0.000         0.000         0.000         0.000         0.000
  JK-Pump-2                    0.000         0.000         0.000         0.000         0.000
  XR-Pump-1                  267.577       455.077        17.129         1.954        10.217
  XR-Pump-2                    0.000         0.000         0.000         0.000         0.000
  XR-Pump-3                    0.000         0.000         0.000         0.000         0.000
  XR-Pump-4                  267.577       455.077        17.129         1.954        10.217
  3                          841.542      1650.618        19.211         1.416         9.550
  5                          766.198      1442.390        19.725         1.554         9.932
  6                          792.020      1378.354        45.232         5.060        26.693
  

  Analysis begun on:  Wed Jun 30 19:19:05 2021
  Analysis ended on:  Wed Jun 30 19:19:09 2021
  Total elapsed time: 00:00:04