
  EPA STORM WATER MANAGEMENT MODEL - VERSION 5.1 (Build 5.3.0.dev0)
  --------------------------------------------------------------

  WARNING 04: minimum elevation drop used for Conduit WS02004404WS02004405
  WARNING 03: negative offset ignored for Link YS02001904YS02001907
  
  *********************************************************
  NOTE: The summary statistics displayed in this report are
  based on results found at every computational time step,  
  not just on results from each reporting time step.
  *********************************************************
  
  ****************
  Analysis Options
  ****************
  Flow Units ............... LPS
  Process Models:
    Rainfall/Runoff ........ YES
    RDII ................... NO
    Snowmelt ............... NO
    Groundwater ............ NO
    Flow Routing ........... YES
    Ponding Allowed ........ NO
    Water Quality .......... YES
  Infiltration Method ...... HORTON
  Flow Routing Method ...... DYNWAVE
  Surcharge Method ......... EXTRAN
  Starting Date ............ 08/28/2015 08:00:00
  Ending Date .............. 08/28/2015 16:00:00
  Antecedent Dry Days ...... 8.0
  Report Time Step ......... 00:01:00
  Wet Time Step ............ 00:01:00
  Dry Time Step ............ 00:01:00
  Routing Time Step ........ 5.00 sec
  Variable Time Step ....... YES
  Maximum Trials ........... 8
  Number of Threads ........ 4
  Head Tolerance ........... 0.001500 m
  
  
  **************************        Volume         Depth
  Runoff Quantity Continuity     hectare-m            mm
  **************************     ---------       -------
  Total Precipitation ......        27.779        60.819
  Evaporation Loss .........         0.000         0.000
  Infiltration Loss ........         1.768         3.870
  Surface Runoff ...........        24.134        52.839
  Final Storage ............         1.881         4.118
  Continuity Error (%) .....        -0.012
  
  
  **************************           COD            SS            TN            TP         NH4-N
  Runoff Quality Continuity             kg            kg            kg            kg            kg
  **************************    ----------    ----------    ----------    ----------    ----------
  Initial Buildup ..........     41378.656     70582.865      1804.177       168.684      1032.807
  Surface Buildup ..........        98.667       217.144         3.867         0.324         2.025
  Wet Deposition ...........         0.000         0.000         0.000         0.000         0.000
  Sweeping Removal .........         0.000         0.000         0.000         0.000         0.000
  Infiltration Loss ........       155.921       282.443         4.184         0.326         2.122
  BMP Removal ..............         0.000         0.000         0.000         0.000         0.000
  Surface Runoff ...........     28692.651     54510.107       701.694        53.145       350.255
  Remaining Buildup ........     12625.278     16005.678      1101.923       115.517       682.325
  Continuity Error (%) .....         0.008         0.003         0.013         0.012         0.013
  
  
  **************************        Volume        Volume
  Flow Routing Continuity        hectare-m      10^6 ltr
  **************************     ---------     ---------
  Dry Weather Inflow .......         0.630         6.296
  Wet Weather Inflow .......        24.132       241.320
  Groundwater Inflow .......         0.000         0.000
  RDII Inflow ..............         0.000         0.000
  External Inflow ..........         0.105         1.045
  External Outflow .........         3.155        31.548
  Flooding Loss ............        21.167       211.671
  Evaporation Loss .........         0.000         0.000
  Exfiltration Loss ........         0.000         0.000
  Initial Stored Volume ....         0.076         0.761
  Final Stored Volume ......         0.621         6.207
  Continuity Error (%) .....        -0.002
  
  
  **************************           COD            SS            TN            TP         NH4-N
  Quality Routing Continuity            kg            kg            kg            kg            kg
  **************************    ----------    ----------    ----------    ----------    ----------
  Dry Weather Inflow .......      1573.993      2518.389       151.103        18.888        94.440
  Wet Weather Inflow .......     28693.196     54511.942       701.687        53.144       350.250
  Groundwater Inflow .......         0.000         0.000         0.000         0.000         0.000
  RDII Inflow ..............         0.000         0.000         0.000         0.000         0.000
  External Inflow ..........       187.321       299.713        17.983         2.248        11.239
  External Outflow .........      3825.370      7138.766       129.918        12.219        70.824
  Flooding Loss ............     26289.432     49640.126       723.114        60.232       374.885
  Exfiltration Loss ........         0.000         0.000         0.000         0.000         0.000
  Mass Reacted .............         0.000         0.000         0.000         0.000         0.000
  Initial Stored Mass ......         0.000         0.000         0.000         0.000         0.000
  Final Stored Mass ........       349.965       583.921        17.072         1.734         9.762
  Continuity Error (%) .....        -0.034        -0.057         0.077         0.127         0.100
  
  
  *************************
  Highest Continuity Errors
  *************************
  Node WS02006256 (88.31%)
  Node YS02001884 (11.11%)
  Node HS02004842 (1.94%)
  Node WS02003059 (1.14%)
  
  
  ***************************
  Time-Step Critical Elements
  ***************************
  Link WS02006280WS02006229 (40.89%)
  Link WS02006238WS02006235 (30.22%)
  Link YS02006556YS02006558 (7.74%)
  Link YS02006558YS02006561 (2.30%)
  Link HS02004478WS02006287 (1.60%)
  
  
  ********************************
  Highest Flow Instability Indexes
  ********************************
  Link YS02006558YS02006561 (18)
  Link WS02006113WS02006111 (16)
  Link YS02006561YS02001783 (16)
  Link YS02001882YS02001884 (15)
  Link YS02001884YS02001887 (13)
  
  
  *************************
  Routing Time Step Summary
  *************************
  Minimum Time Step           :     0.50 sec
  Average Time Step           :     2.13 sec
  Maximum Time Step           :     5.00 sec
  Percent in Steady State     :     0.00
  Average Iterations per Step :     2.62
  Percent Not Converging      :     5.10
  
  
  ***************************
  Subcatchment Runoff Summary
  ***************************
  
  ------------------------------------------------------------------------------------------------------------------------------
                            Total      Total      Total      Total     Imperv       Perv      Total       Total     Peak  Runoff
                           Precip      Runon       Evap      Infil     Runoff     Runoff     Runoff      Runoff   Runoff   Coeff
  Subcatchment                 mm         mm         mm         mm         mm         mm         mm    10^6 ltr      LPS
  ------------------------------------------------------------------------------------------------------------------------------
  sub0                      60.82       0.00       0.00       0.80      56.53       3.46      59.98        0.05    10.50   0.986
  sub1                      60.82       0.00       0.00       1.44      54.04       5.25      59.29        0.39    83.02   0.975
  sub2                      60.82       0.00       0.00       6.74      38.23      15.77      54.00        0.50   106.60   0.888
  sub3                      60.82       0.00       0.00       7.37      38.19      15.13      53.32        1.20   248.78   0.877
  sub4                      60.82       0.00       0.00       1.66      53.86       5.03      58.89        1.23   248.54   0.968
  sub5                      60.82       0.00       0.00       0.87      56.47       3.39      59.86        0.68   142.18   0.984
  sub7                      60.82       0.00       0.00       1.10      55.29       4.38      59.67        0.20    42.90   0.981
  sub8                      60.82       0.00       0.00       1.12      55.28       4.36      59.64        0.38    80.86   0.981
  sub9                      60.82       0.00       0.00       1.12      55.28       4.35      59.63        0.29    60.78   0.980
  sub10                     60.82       0.00       0.00       1.00      55.87       3.87      59.73        0.66   138.70   0.982
  sub11                     60.82       0.00       0.00       0.98      55.89       3.89      59.78        0.69   147.50   0.983
  sub12                     60.82       0.00       0.00       1.59      52.87       6.32      59.19        0.52   111.81   0.973
  sub14                     60.82       0.00       0.00       1.12      55.27       4.35      59.62        0.57   120.17   0.980
  sub15                     60.82       0.00       0.00       4.63      42.51      13.61      56.13        0.97   207.66   0.923
  sub16                     60.82       0.00       0.00       4.73      40.71      15.34      56.06        0.59   128.49   0.922
  sub17                     60.82       0.00       0.00       4.62      41.32      14.85      56.17        0.48   105.20   0.923
  sub22                     60.82       0.00       0.00       7.08      34.63      19.07      53.70        3.39   740.07   0.883
  sub23                     60.82       0.00       0.00       5.73      38.28      16.78      55.05        2.63   572.39   0.905
  sub60                     60.82       0.00       0.00       2.82      50.94       4.48      55.41       16.80  2846.95   0.911
  sub61                     60.82       0.00       0.00       4.00      49.03       6.34      55.38       17.08  3085.21   0.911
  sub62                     60.82       0.00       0.00       1.54      54.08       3.33      57.41       17.65  3143.69   0.944
  sub63                     60.82       0.00       0.00       7.96      42.19       9.68      51.87       15.70  2828.43   0.853
  sub64                     60.82       0.00       0.00       3.83      49.11       5.29      54.39       16.54  2774.44   0.894
  sub65                     60.82       0.00       0.00       3.19      50.16       4.71      54.88       16.88  2822.73   0.902
  sub66                     60.82       0.00       0.00       8.72      41.33       8.47      49.81       15.27  2531.03   0.819
  sub67                     60.82       0.00       0.00       1.40      54.82       3.47      58.29       17.99  3361.28   0.958
  sub68                     60.82       0.00       0.00       2.99      51.00       5.52      56.52       17.38  3195.92   0.929
  sub69                     60.82       0.00       0.00       2.90      50.99       6.23      57.22       13.37  2579.68   0.941
  sub70                     60.82      58.42       0.00      10.22      76.81      27.26     104.07       23.82  3821.74   0.873
  sub71                     60.82       0.00       0.00       1.59      53.69       3.27      56.96       13.45  2341.64   0.937
  sub72                     60.82       0.00       0.00       1.69      50.29       2.57      52.86       10.77  1535.61   0.869
  1                         60.82     101.35       0.00       1.40     103.49      45.46     148.94       35.00  4610.91   0.918
  2                         60.82       0.00       0.00       3.09      15.04      23.51      38.56       15.42  1925.59   0.634
  
  
  ****************************
  Subcatchment Washoff Summary
  ****************************
  
  ------------------------------------------------------------------------------------------
                                 COD            SS            TN            TP         NH4-N
  Subcatchment                    kg            kg            kg            kg            kg
  ------------------------------------------------------------------------------------------
  sub0                        11.538        20.058         0.300         0.027         0.156
  sub1                        55.612       104.459         1.418         0.109         0.719
  sub2                        49.774        95.120         1.297         0.096         0.631
  sub3                       126.707       241.790         3.239         0.242         1.582
  sub4                       141.501       279.085         3.525         0.240         1.769
  sub5                       120.956       219.725         3.092         0.254         1.586
  sub7                        27.220        51.842         0.693         0.051         0.351
  sub8                        41.958        83.529         1.058         0.070         0.531
  sub9                        35.606        69.177         0.901         0.064         0.455
  sub10                      100.836       187.665         2.569         0.201         1.310
  sub11                       97.297       184.006         2.478         0.187         1.259
  sub12                       83.619       152.302         2.160         0.176         1.103
  sub14                       75.720       144.657         1.922         0.141         0.974
  sub15                      124.492       229.721         3.230         0.257         1.610
  sub16                       79.976       146.025         2.086         0.169         1.043
  sub17                       72.487       129.974         1.890         0.159         0.949
  sub22                      467.142       855.349        11.934         0.974         5.936
  sub23                      247.038       474.707         6.533         0.473         3.178
  sub60                     1883.450      3698.357        44.557         3.109        22.215
  sub61                     2248.844      4282.314        53.314         4.062        26.825
  sub62                     2151.104      4178.798        51.777         3.704        25.944
  sub63                     1854.600      3512.888        44.993         3.472        22.070
  sub64                     2515.361      4712.673        58.951         4.694        29.514
  sub65                     2532.233      4765.477        59.444         4.673        29.776
  sub66                     1615.628      3138.517        37.953         2.765        18.579
  sub67                     2924.329      5415.037        71.192         5.728        36.162
  sub68                     2318.000      4421.597        56.160         4.224        28.142
  sub69                     1914.043      3597.637        47.174         3.658        23.743
  sub70                     3407.908      6243.689        96.430         7.525        48.744
  sub71                     1462.997      2918.550        35.184         2.328        17.497
  sub72                     1547.928      2957.238        34.963         2.658        17.464
  1                         3173.911      5844.548        89.650         6.978        44.983
  2                          504.787       994.922        13.230         0.860         5.944
  ------------------------------------------------------------------------------------------
  System                   34014.603     64351.433       845.298        64.329       422.741
  
  
  ******************
  Node Depth Summary
  ******************
  
  ---------------------------------------------------------------------------------
                                 Average  Maximum  Maximum  Time of Max    Reported
                                   Depth    Depth      HGL   Occurrence   Max Depth
  Node                 Type       Meters   Meters   Meters  days hr:min      Meters
  ---------------------------------------------------------------------------------
  WS02001211           JUNCTION     0.30     0.48     5.31     0  03:03        0.47
  WS02001212           JUNCTION     0.10     0.30     5.37     0  03:03        0.30
  WS02001213           JUNCTION     0.41     0.67     5.43     0  03:02        0.67
  WS02003069           JUNCTION     0.28     0.58     5.17     0  03:02        0.58
  WS02003072           JUNCTION     0.34     0.64     5.01     0  03:03        0.64
  WS02003073           JUNCTION     0.20     0.40     4.46     0  03:03        0.40
  WS02003060           JUNCTION     0.25     0.52     5.45     0  03:02        0.52
  WS02003066           JUNCTION     0.21     0.43     5.98     0  03:01        0.43
  WS02003059           JUNCTION     0.49     0.76     5.45     0  03:02        0.76
  WS02003067           JUNCTION     0.51     0.85     6.17     0  03:00        0.85
  WS02004401           JUNCTION     0.72     1.62     7.62     0  03:01        1.62
  WS02004402           JUNCTION     0.74     1.58     7.54     0  03:01        1.58
  WS02004403           JUNCTION     0.74     1.52     7.45     0  03:01        1.52
  WS02004404           JUNCTION     0.80     1.54     7.39     0  03:01        1.54
  WS02004406           JUNCTION     0.78     1.41     7.24     0  03:01        1.41
  WS02004409           JUNCTION     0.50     1.27     7.04     0  03:01        1.26
  WS02004410           JUNCTION     0.50     1.19     6.91     0  03:01        1.19
  WS02004411           JUNCTION     0.51     1.13     6.81     0  03:01        1.12
  WS02004412           JUNCTION     0.51     1.05     6.69     0  03:01        1.05
  WS02004413           JUNCTION     0.65     1.11     6.58     0  03:01        1.11
  WS02004405           JUNCTION     0.79     1.50     7.35     0  03:01        1.50
  WS02006109           JUNCTION     0.90     2.51     9.13     0  03:01        2.50
  WS02006110           JUNCTION     0.85     2.20     8.79     0  03:01        2.20
  WS02006111           JUNCTION     0.39     1.46     8.17     0  03:01        1.46
  WS02006112           JUNCTION     0.93     2.07     7.95     0  03:01        2.07
  WS02006113           JUNCTION     0.44     1.59     8.49     0  03:01        1.59
  WS02006115           JUNCTION     0.65     1.68     7.82     0  03:01        1.68
  WS02006116           JUNCTION     0.71     1.69     7.73     0  03:01        1.69
  WS02006230           JUNCTION     0.83     2.44     9.18     0  03:01        2.44
  WS02006231           JUNCTION     0.46     1.68     8.80     0  03:01        1.68
  WS02006232           JUNCTION     0.48     1.42     8.46     0  03:01        1.42
  WS02006234           JUNCTION     0.29     0.90     8.06     0  03:01        0.90
  WS02006235           JUNCTION     0.18     0.51     7.67     0  03:01        0.50
  WS02006238           JUNCTION     0.25     0.54     7.69     0  03:01        0.54
  WS02006240           JUNCTION     0.24     0.50     7.80     0  03:03        0.50
  WS02006242           JUNCTION     0.31     0.60     7.87     0  03:03        0.60
  WS02006243           JUNCTION     0.21     0.49     7.91     0  03:02        0.49
  WS02006245           JUNCTION     0.23     0.49     7.98     0  03:02        0.49
  WS02006247           JUNCTION     0.26     0.53     8.03     0  03:02        0.53
  WS02006248           JUNCTION     0.22     0.48     8.06     0  03:02        0.48
  WS02006249           JUNCTION     0.26     0.52     8.11     0  03:01        0.52
  WS02006239           JUNCTION     0.25     0.53     7.74     0  03:03        0.53
  WS02006251           JUNCTION     0.25     0.52     8.19     0  03:01        0.51
  WS02006252           JUNCTION     0.54     0.59     8.84     0  01:17        0.59
  WS02006253           JUNCTION     0.36     1.07     8.71     0  03:02        1.07
  WS02006256           JUNCTION     0.39     1.34     8.27     0  01:18        0.73
  WS02004138           JUNCTION     0.14     0.14     7.39     0  00:00        0.14
  WS02004139           JUNCTION     0.18     0.27     5.18     0  03:04        0.27
  WS02004407           JUNCTION     0.23     0.74     7.05     0  03:01        0.74
  WS02006228           JUNCTION     0.95     2.77     9.42     0  03:01        2.76
  WS02006229           JUNCTION     0.95     2.89     9.59     0  03:01        2.89
  WS02006280           JUNCTION     0.27     1.39     9.66     0  03:01        1.38
  WS02006284           JUNCTION     0.57     1.51     9.91     0  03:01        1.50
  WS02006287           JUNCTION     0.31     1.21    10.16     0  03:01        1.21
  WSF200               JUNCTION     0.20     0.44     5.67     0  03:01        0.44
  HS02004901           JUNCTION     0.30     1.42    11.24     0  02:58        1.42
  HS02004881           JUNCTION     0.04     0.22     9.25     0  03:02        0.21
  HS02004876           JUNCTION     0.13     0.55     9.58     0  03:02        0.52
  HS02004870           JUNCTION     0.09     0.46     9.74     0  03:01        0.45
  HS02004862           JUNCTION     0.10     0.52     9.90     0  03:01        0.52
  HS02004856           JUNCTION     0.15     0.59    10.01     0  03:01        0.58
  HS02004852           JUNCTION     0.09     0.57    10.08     0  03:01        0.56
  HS02004848           JUNCTION     0.08     0.55    10.15     0  03:01        0.55
  HS02004842           JUNCTION     0.40     0.93    10.20     0  03:01        0.93
  HS02004837           JUNCTION     0.10     0.63    10.21     0  03:01        0.63
  HS02004830           JUNCTION     0.14     0.76    10.23     0  03:01        0.76
  HS02004824           JUNCTION     0.16     0.84    10.25     0  03:01        0.84
  HS02004817           JUNCTION     0.62     1.40    10.25     0  03:01        1.40
  HS02004807           JUNCTION     0.31     1.08    10.25     0  03:01        1.08
  HS02004802           JUNCTION     0.34     1.12    10.25     0  03:01        1.12
  HS02004799           JUNCTION     0.36     1.44    10.65     0  03:01        1.44
  HS02004792           JUNCTION     0.22     1.44    10.96     0  03:01        1.44
  HS02004788           JUNCTION     0.14     1.18    11.08     0  03:01        1.18
  HS02004785           JUNCTION     0.19     1.23    11.13     0  03:01        1.23
  HS02004777           JUNCTION     0.32     1.40    11.20     0  03:01        1.40
  HS02004770           JUNCTION     0.29     1.41    11.24     0  03:01        1.41
  HS02004480           JUNCTION     0.29     1.22    10.46     0  03:01        1.22
  HS02004479           JUNCTION     0.33     1.26    10.47     0  03:01        1.26
  HS02004478           JUNCTION     0.23     1.03    10.25     0  03:01        1.02
  YS02001745           JUNCTION     1.04     2.27     9.78     0  03:01        2.27
  YS02001748           JUNCTION     1.38     2.27     9.35     0  02:45        2.27
  YS02001751           JUNCTION     1.51     2.20     9.08     0  03:03        2.20
  YS02001754           JUNCTION     1.70     2.19     8.79     0  03:05        2.18
  YS02001762           JUNCTION     1.85     2.15     8.55     0  03:01        2.15
  YS02001765           JUNCTION     1.80     2.09     8.54     0  03:04        2.08
  YS02001767           JUNCTION     1.76     2.02     8.50     0  03:06        2.01
  YS02001770           JUNCTION     1.74     1.95     8.44     0  01:43        1.95
  YS02001774           JUNCTION     1.79     2.00     8.42     0  03:07        1.99
  YS02001779           JUNCTION     1.52     1.68     8.37     0  01:21        1.68
  YS02001882           JUNCTION     1.17     1.83     8.55     0  02:51        1.83
  YS02001884           JUNCTION     1.26     1.93     8.55     0  03:01        1.92
  YS02001759           JUNCTION     1.89     2.21     8.57     0  02:28        2.21
  YS02001887           JUNCTION     1.34     2.00     8.54     0  02:13        2.00
  YS02001890           JUNCTION     1.31     1.81     8.32     0  01:23        1.81
  YS02001898           JUNCTION     1.07     1.60     8.33     0  01:25        1.56
  YS02001901           JUNCTION     1.18     1.70     8.31     0  01:25        1.67
  YS02001904           JUNCTION     1.15     1.65     8.28     0  01:25        1.63
  YS02001907           JUNCTION     1.47     1.96     8.25     0  01:25        1.96
  YS02001910           JUNCTION     1.35     2.01     8.52     0  03:08        2.01
  YS02001915           JUNCTION     1.23     2.00     8.72     0  02:13        2.00
  YS02001918           JUNCTION     0.96     1.81     8.88     0  01:26        1.81
  YS02001619           JUNCTION     1.38     1.61     8.54     0  01:21        1.61
  YS02001629           JUNCTION     1.67     1.85     8.40     0  01:21        1.85
  YS02001641           JUNCTION     1.76     1.97     8.41     0  03:05        1.96
  YS02001644           JUNCTION     1.75     1.92     8.35     0  01:22        1.92
  YS02001652           JUNCTION     1.69     2.15     8.75     0  03:03        2.14
  YS02001655           JUNCTION     1.52     2.20     9.05     0  02:48        2.20
  YS02001920           JUNCTION     1.07     2.11     9.12     0  01:26        2.00
  YS02001923           JUNCTION     0.87     2.03     9.29     0  01:26        1.87
  YS02001926           JUNCTION     0.83     1.90     9.35     0  01:26        1.80
  YS02001929           JUNCTION     0.65     1.78     9.47     0  01:26        1.69
  YS02001658           JUNCTION     1.31     2.30     9.44     0  02:58        2.30
  YS02001661           JUNCTION     1.13     2.43     9.84     0  02:59        2.43
  YS02001664           JUNCTION     0.71     2.31    10.23     0  02:59        2.31
  YS02001622           JUNCTION     1.37     1.62     8.52     0  01:21        1.58
  YS02001633           JUNCTION     1.79     2.08     8.53     0  02:35        2.08
  YS02001649           JUNCTION     1.83     2.05     8.44     0  01:22        2.05
  YS02001757           JUNCTION     1.96     2.21     8.47     0  01:22        2.21
  YS02001895           JUNCTION     1.07     1.59     8.33     0  01:25        1.56
  YS02001625           JUNCTION     1.62     1.78     8.38     0  01:21        1.78
  YS02163301           JUNCTION     1.72     1.95     8.47     0  03:07        1.95
  YS02163601           JUNCTION     1.82     2.08     8.48     0  03:07        2.07
  YS02164001           JUNCTION     1.75     1.98     8.43     0  03:13        1.97
  YS02001647           JUNCTION     1.60     1.80     8.41     0  01:26        1.79
  YSB1154              JUNCTION     0.47     1.43    10.49     0  03:01        1.43
  YSB6556              JUNCTION     0.36     1.31    10.48     0  03:01        1.31
  YSB1174              JUNCTION     0.42     1.37    10.48     0  03:01        1.37
  YSB1171              JUNCTION     0.62     1.57    10.47     0  03:01        1.57
  YS02006553           JUNCTION     1.49     2.12     8.40     0  03:01        2.12
  YS02006561           JUNCTION     0.76     1.43     8.09     0  03:01        1.43
  YS02006556           JUNCTION     1.48     2.31     8.62     0  03:01        2.31
  YS02006558           JUNCTION     1.53     2.47     8.74     0  03:01        2.47
  YS02001783           JUNCTION     1.11     1.78     7.92     0  03:01        1.78
  YS02001784           JUNCTION     1.09     1.69     7.76     0  01:22        1.68
  YS02001786           JUNCTION     0.99     1.80     7.83     0  01:22        1.47
  YS02001788           JUNCTION     0.91     1.77     7.75     0  01:22        1.28
  YS02001790           JUNCTION     1.09     1.96     7.60     0  01:22        1.39
  YS02001791           JUNCTION     1.12     1.86     7.33     0  01:21        1.34
  YS02001793           JUNCTION     1.61     2.02     6.86     0  01:22        1.83
  WSC                  OUTFALL      0.20     0.40     1.07     0  03:03        0.40
  3                    OUTFALL      0.00     0.00     7.16     0  00:00        0.00
  4                    OUTFALL      0.00     0.00     7.67     0  00:00        0.00
  5                    OUTFALL      0.00     0.00     4.91     0  00:00        0.00
  JK-storage           STORAGE      5.55     5.80     6.60     0  01:22        5.80
  CC-storage           STORAGE      1.13     1.45     8.45     0  02:32        1.45
  XR-storage           STORAGE      7.50     7.72     5.72     0  01:23        7.72
  
  
  *******************
  Node Inflow Summary
  *******************
  
  -------------------------------------------------------------------------------------------------
                                  Maximum  Maximum                  Lateral       Total        Flow
                                  Lateral    Total  Time of Max      Inflow      Inflow     Balance
                                   Inflow   Inflow   Occurrence      Volume      Volume       Error
  Node                 Type           LPS      LPS  days hr:min    10^6 ltr    10^6 ltr     Percent
  -------------------------------------------------------------------------------------------------
  WS02001211           JUNCTION      7.35   268.37     0  03:03       0.212        1.61       0.377
  WS02001212           JUNCTION      0.00   261.17     0  03:02           0        1.39       0.004
  WS02001213           JUNCTION      0.00   261.39     0  03:02           0         1.4       0.575
  WS02003069           JUNCTION      0.32   945.59     0  03:02     0.00922        6.94       0.065
  WS02003072           JUNCTION      0.00   945.24     0  03:02           0        6.93       0.111
  WS02003073           JUNCTION      1.82   946.81     0  03:03      0.0524        6.98       0.090
  WS02003060           JUNCTION     16.53  1207.25     0  03:02       0.476        8.36       0.049
  WS02003066           JUNCTION      0.00  1190.51     0  03:01           0        7.87       0.020
  WS02003059           JUNCTION      0.00   261.73     0  03:02           0        1.43       1.149
  WS02003067           JUNCTION      0.00  1190.21     0  03:01           0        7.88       0.055
  WS02004401           JUNCTION      0.00  1191.55     0  03:01           0        7.99       0.135
  WS02004402           JUNCTION      0.00  1191.55     0  03:01           0        7.98       0.136
  WS02004403           JUNCTION      0.00  1191.53     0  03:01           0        7.97       0.133
  WS02004404           JUNCTION      0.16  1191.75     0  03:01     0.00467        7.96       0.108
  WS02004406           JUNCTION      0.00  1191.95     0  03:01           0        7.94       0.265
  WS02004409           JUNCTION      0.00  1190.58     0  03:01           0        7.92       0.048
  WS02004410           JUNCTION      0.00  1190.34     0  03:01           0        7.91       0.067
  WS02004411           JUNCTION      0.00  1191.12     0  03:01           0        7.91       0.081
  WS02004412           JUNCTION      0.00  1190.58     0  03:01           0         7.9       0.102
  WS02004413           JUNCTION      0.00  1190.24     0  03:01           0        7.89       0.190
  WS02004405           JUNCTION      0.04  1191.74     0  03:01      0.0011        7.95       0.167
  WS02006109           JUNCTION      1.23  1087.60     0  03:01      0.0354        7.56       0.109
  WS02006110           JUNCTION      0.00  1087.46     0  03:01           0        7.55       0.125
  WS02006111           JUNCTION      0.00  1088.15     0  03:01           0        7.54       0.015
  WS02006112           JUNCTION    105.20  1191.64     0  03:01       0.482        8.02       0.185
  WS02006113           JUNCTION      0.00  1088.02     0  03:01           0        7.54       0.035
  WS02006115           JUNCTION      0.00  1191.61     0  03:01           0           8       0.135
  WS02006116           JUNCTION      0.00  1191.57     0  03:01           0        7.99       0.047
  WS02006230           JUNCTION     10.28   910.54     0  03:01       0.296        4.78       0.073
  WS02006231           JUNCTION      0.00   910.55     0  03:01           0        4.56       0.015
  WS02006232           JUNCTION      0.00   910.64     0  03:01           0        4.56       0.050
  WS02006234           JUNCTION      0.00   910.66     0  03:01           0        4.56       0.034
  WS02006235           JUNCTION      0.00  1197.39     0  03:01           0        6.87       0.001
  WS02006238           JUNCTION      0.00   304.40     0  03:03           0        2.35       0.176
  WS02006240           JUNCTION      0.00   303.39     0  03:03           0        2.36       0.125
  WS02006242           JUNCTION      0.00   303.38     0  03:02           0        2.36       0.274
  WS02006243           JUNCTION      0.00   304.03     0  03:02           0        2.37       0.179
  WS02006245           JUNCTION      0.00   305.01     0  03:02           0        2.37       0.187
  WS02006247           JUNCTION      0.00   306.19     0  03:02           0        2.37       0.159
  WS02006248           JUNCTION      0.00   307.37     0  03:01           0        2.38       0.063
  WS02006249           JUNCTION      0.00   309.08     0  03:01           0        2.38       0.233
  WS02006239           JUNCTION      0.00   304.08     0  03:03           0        2.35       0.133
  WS02006251           JUNCTION      0.08  1541.55     0  03:01     0.00222        13.1       0.016
  WS02006252           JUNCTION      0.00   400.00     0  01:17           0        9.68       0.005
  WS02006253           JUNCTION     10.50  1189.65     0  03:02      0.0486        3.39       0.117
  WS02006256           JUNCTION      0.00    17.82     0  01:18           0     0.00101     755.634
  WS02004138           JUNCTION      0.00   190.00     0  00:00           0        5.47       0.073
  WS02004139           JUNCTION      0.32   458.60     0  03:03     0.00924        7.08       0.063
  WS02004407           JUNCTION      0.00  1192.08     0  03:01           0        7.92       0.017
  WS02006228           JUNCTION      0.00  1086.28     0  03:01           0        7.53       0.062
  WS02006229           JUNCTION      0.00  1986.06     0  03:01           0          12       0.044
  WS02006280           JUNCTION      0.00  1986.17     0  03:01           0        11.7       0.003
  WS02006284           JUNCTION      0.10  1986.35     0  03:01     0.00275        11.7       0.011
  WS02006287           JUNCTION      0.00  1986.45     0  03:01           0        11.7       0.020
  WSF200               JUNCTION      0.00  1190.59     0  03:01           0        7.87       0.006
  HS02004901           JUNCTION    128.49   128.49     0  03:01       0.587       0.587       0.379
  HS02004881           JUNCTION     42.90  1189.74     0  03:02       0.201        3.35       0.023
  HS02004876           JUNCTION     83.02  1091.81     0  03:01       0.394        3.14      -0.009
  HS02004870           JUNCTION     80.86  1012.96     0  03:01       0.381        2.75       0.005
  HS02004862           JUNCTION    106.80   936.93     0  03:01       0.509        2.37       0.010
  HS02004856           JUNCTION     60.78   834.55     0  03:01       0.287        1.86       0.079
  HS02004852           JUNCTION      0.00   779.55     0  03:01           0        1.58       0.004
  HS02004848           JUNCTION    248.78   782.30     0  03:01         1.2        1.73      -0.003
  HS02004842           JUNCTION      0.00   534.63     0  03:01           0       0.695       1.977
  HS02004837           JUNCTION    145.05   538.04     0  03:01       0.842        1.25       0.062
  HS02004830           JUNCTION      0.15   394.42     0  03:01     0.00432       0.961       0.179
  HS02004824           JUNCTION    248.59   394.41     0  03:01        1.23        1.99       0.059
  HS02004817           JUNCTION      0.60   290.90     0  03:08      0.0173         1.8       0.940
  HS02004807           JUNCTION    147.50   354.39     0  02:28       0.695        2.43       0.234
  HS02004802           JUNCTION      0.00   369.15     0  03:07           0        2.38       0.189
  HS02004799           JUNCTION    120.17  1733.12     0  03:01       0.568        8.18       0.056
  HS02004792           JUNCTION    740.35  1613.24     0  03:00         3.4        7.61       0.021
  HS02004788           JUNCTION    209.33   886.73     0  02:59        1.01        4.22       0.012
  HS02004785           JUNCTION      0.15   682.45     0  02:59     0.00432         3.2       0.033
  HS02004777           JUNCTION      0.03   682.53     0  02:59    0.000864        3.21       0.192
  HS02004770           JUNCTION    572.39   683.25     0  02:58        2.63        3.21       0.140
  HS02004480           JUNCTION      0.00  1986.29     0  03:01           0        9.37       0.028
  HS02004479           JUNCTION      0.00   253.61     0  03:01           0         1.2       0.113
  HS02004478           JUNCTION      0.00  2010.40     0  02:50           0        11.7       0.004
  YS02001745           JUNCTION   2846.95  2846.95     0  03:01        16.8        16.8       0.067
  YS02001748           JUNCTION      0.04  2846.97     0  03:01      0.0013        16.8       0.130
  YS02001751           JUNCTION      0.01  2354.09     0  03:03    0.000317        16.5       0.146
  YS02001754           JUNCTION      0.26  2355.02     0  03:03     0.00749        16.5       0.143
  YS02001762           JUNCTION      0.00   722.49     0  03:07           0        6.34       0.328
  YS02001765           JUNCTION      0.00   722.14     0  03:07           0        6.34       0.381
  YS02001767           JUNCTION      0.54   722.75     0  03:03      0.0154        6.37       0.561
  YS02001770           JUNCTION   3143.85  3866.03     0  03:01        17.7        22.7       0.134
  YS02001774           JUNCTION      0.00   852.03     0  03:04           0        9.57       0.260
  YS02001779           JUNCTION      0.01   851.75     0  03:03    0.000144        9.54       0.154
  YS02001882           JUNCTION      0.00    85.46     0  01:23           0      0.0249      11.159
  YS02001884           JUNCTION      0.00    91.12     0  01:23           0      0.0619      12.496
  YS02001759           JUNCTION   3085.25  3085.25     0  03:01        17.1        18.3       0.123
  YS02001887           JUNCTION   3361.73  3361.73     0  03:01          18          18       0.051
  YS02001890           JUNCTION      0.00  2052.03     0  02:25           0        15.9       0.062
  YS02001898           JUNCTION      0.00   586.51     0  01:25           0        6.71       0.038
  YS02001901           JUNCTION      0.00   588.39     0  01:25           0        6.71       0.123
  YS02001904           JUNCTION      0.00   589.42     0  01:25           0        6.71       0.097
  YS02001907           JUNCTION      0.00  4597.54     0  03:01           0        33.8       0.068
  YS02001910           JUNCTION      0.00  1993.19     0  03:04           0        20.6       0.059
  YS02001915           JUNCTION   2341.66  3563.36     0  03:01        13.5        24.1       0.032
  YS02001918           JUNCTION      0.00  1540.16     0  03:01           0        10.9       0.019
  YS02001619           JUNCTION   2531.03  2531.03     0  03:01        15.3        15.3       0.077
  YS02001629           JUNCTION      0.00  1138.91     0  03:05           0        8.06       0.338
  YS02001641           JUNCTION      0.00   906.20     0  03:05           0        10.3       0.202
  YS02001644           JUNCTION   2774.48  4526.13     0  03:01        16.5        36.6       0.066
  YS02001652           JUNCTION      0.00  2429.27     0  03:03           0        15.4       0.144
  YS02001655           JUNCTION      0.15  2731.44     0  03:01     0.00443        15.7       0.162
  YS02001920           JUNCTION      2.87  1539.27     0  03:01      0.0827        10.9       0.033
  YS02001923           JUNCTION      0.04  1536.33     0  03:01     0.00109        10.8       0.019
  YS02001926           JUNCTION      0.05  1535.85     0  03:01      0.0015        10.8       0.037
  YS02001929           JUNCTION   1535.61  1535.61     0  03:01        10.8        10.8       0.009
  YS02001658           JUNCTION      0.00  2783.08     0  03:01           0        15.7       0.148
  YS02001661           JUNCTION      0.00  2783.08     0  03:01           0        15.7       0.128
  YS02001664           JUNCTION   2828.43  2828.43     0  03:01        15.7        15.7       0.028
  YS02001622           JUNCTION      0.00  1053.94     0  03:03           0        11.6       0.266
  YS02001633           JUNCTION   2822.93  2822.93     0  03:01        16.9          18       0.177
  YS02001649           JUNCTION      0.00  3237.14     0  03:02           0        23.9       0.151
  YS02001757           JUNCTION      0.00  3761.83     0  03:03           0        30.8       0.294
  YS02001895           JUNCTION      0.00   585.29     0  01:25           0        6.72       0.106
  YS02001625           JUNCTION      0.00  1505.48     0  03:03           0        15.6       0.253
  YS02163301           JUNCTION      0.00  1138.91     0  03:05           0        8.06       0.293
  YS02163601           JUNCTION      0.11   905.67     0  03:03     0.00317        10.3       0.289
  YS02164001           JUNCTION      0.00   906.22     0  03:05           0        10.3       0.190
  YS02001647           JUNCTION      0.00   846.70     0  03:02           0          11       0.255
  YSB1154              JUNCTION    142.18   142.18     0  03:01       0.678       0.678       0.234
  YSB6556              JUNCTION      0.00   142.11     0  03:01           0       0.679       0.248
  YSB1174              JUNCTION    111.81   111.81     0  03:01       0.517       0.518       0.292
  YSB1171              JUNCTION      0.00   253.74     0  03:01           0         1.2       0.581
  YS02006553           JUNCTION      0.00  2088.38     0  03:01           0        13.2       0.118
  YS02006561           JUNCTION      0.00  1108.90     0  03:01           0        17.4       0.004
  YS02006556           JUNCTION      0.00  2087.75     0  03:01           0        13.2       0.076
  YS02006558           JUNCTION   3196.80  3196.80     0  03:01        17.4          24       0.023
  YS02001783           JUNCTION      0.00  1108.95     0  03:01           0        17.4       0.038
  YS02001784           JUNCTION      1.06  1109.96     0  03:01      0.0305        17.4       0.062
  YS02001786           JUNCTION      0.06  1109.90     0  03:01     0.00162        17.4       0.077
  YS02001788           JUNCTION      0.07  1110.13     0  03:01     0.00204        17.4       0.078
  YS02001790           JUNCTION      0.15  1110.21     0  03:01     0.00446        17.4       0.096
  YS02001791           JUNCTION      0.00  1110.44     0  03:01           0        17.4       0.083
  YS02001793           JUNCTION      0.00  1110.38     0  03:01           0        17.4       0.092
  WSC                  OUTFALL       0.00   946.46     0  03:03           0        6.97       0.000
  3                    OUTFALL       0.00  1197.26     0  03:01           0        6.82       0.000
  4                    OUTFALL       0.00  1232.15     0  03:01           0        10.7       0.000
  5                    OUTFALL       0.00   458.53     0  03:04           0        7.07       0.000
  JK-storage           STORAGE       0.00  1110.75     0  03:01           0        17.5       0.113
  CC-storage           STORAGE       0.00  2246.30     0  01:41           0        13.3       0.342
  XR-storage           STORAGE    6736.50  6736.50     0  03:01        56.2        56.8      -0.003
  
  
  **********************
  Node Surcharge Summary
  **********************
  
  Surcharging occurs when water rises above the top of the highest conduit.
  ---------------------------------------------------------------------
                                               Max. Height   Min. Depth
                                   Hours       Above Crown    Below Rim
  Node                 Type      Surcharged         Meters       Meters
  ---------------------------------------------------------------------
  WS02004401           JUNCTION        1.73          0.622        1.038
  WS02004402           JUNCTION        1.75          0.580        1.160
  WS02004403           JUNCTION        1.75          0.522        1.508
  WS02004404           JUNCTION        1.86          0.543        2.237
  WS02004406           JUNCTION        1.82          0.413        2.037
  WS02004409           JUNCTION        0.98          0.265        2.095
  WS02004410           JUNCTION        0.89          0.193        2.347
  WS02004411           JUNCTION        0.76          0.125        2.405
  WS02004412           JUNCTION        0.51          0.048        2.262
  WS02004413           JUNCTION        1.32          0.110        2.090
  WS02004405           JUNCTION        1.84          0.501        2.299
  WS02006109           JUNCTION        2.09          1.690        0.130
  WS02006110           JUNCTION        1.93          1.293        0.557
  WS02006111           JUNCTION        1.19          0.653        1.217
  WS02006112           JUNCTION        1.95          1.069        0.611
  WS02006113           JUNCTION        1.22          0.793        1.137
  WS02006115           JUNCTION        1.61          0.672        1.578
  WS02006116           JUNCTION        1.63          0.633        1.657
  WS02006230           JUNCTION        1.72          1.360        0.210
  WS02006231           JUNCTION        1.62          0.970        0.560
  WS02006232           JUNCTION        1.71          0.721        0.759
  WS02006234           JUNCTION        0.93          0.182        1.058
  WS02006252           JUNCTION        6.72          0.194        0.906
  WS02006253           JUNCTION        0.02          0.026        2.454
  WS02006256           JUNCTION        6.70          1.035        1.015
  WS02006228           JUNCTION        2.09          1.937        0.263
  WS02006229           JUNCTION        0.78          0.713        0.357
  WS02006280           JUNCTION        0.46          0.337        0.443
  WS02006284           JUNCTION        0.32          0.226        0.574
  WS02006287           JUNCTION        0.21          0.209        0.681
  HS02004901           JUNCTION        0.39          0.720        0.000
  HS02004842           JUNCTION        0.26          0.228        1.292
  HS02004830           JUNCTION        0.07          0.061        1.269
  HS02004824           JUNCTION        0.14          0.143        1.167
  HS02004817           JUNCTION        1.95          0.702        1.038
  HS02004807           JUNCTION        0.44          0.382        0.838
  HS02004802           JUNCTION        0.51          0.414        0.796
  HS02004799           JUNCTION        1.18          0.743        0.317
  HS02004792           JUNCTION        0.55          0.736        0.164
  HS02004788           JUNCTION        0.21          0.484        0.236
  HS02004785           JUNCTION        0.22          0.531        0.259
  HS02004777           JUNCTION        0.38          0.699        0.081
  HS02004770           JUNCTION        0.37          0.713        0.007
  HS02004480           JUNCTION        0.63          0.512        0.588
  HS02004479           JUNCTION        0.46          0.462        0.588
  HS02004478           JUNCTION        0.10          0.106        0.834
  YS02001745           JUNCTION        2.44          1.267        0.083
  YS02001748           JUNCTION        6.63          1.190        0.000
  YS02001751           JUNCTION        6.64          1.200        0.000
  YS02001754           JUNCTION        6.65          1.136        0.014
  YS02001762           JUNCTION        6.68          1.150        0.000
  YS02001765           JUNCTION        6.67          1.087        0.013
  YS02001767           JUNCTION        6.67          1.016        0.014
  YS02001770           JUNCTION        6.67          0.920        0.000
  YS02001774           JUNCTION        6.68          1.002        0.048
  YS02001779           JUNCTION        6.65          0.680        0.000
  YS02001882           JUNCTION        3.76          0.830        0.000
  YS02001884           JUNCTION        3.78          0.870        0.000
  YS02001759           JUNCTION        6.68          1.210        0.000
  YS02001887           JUNCTION        3.86          0.950        0.000
  YS02001890           JUNCTION        3.89          0.760        0.000
  YS02001898           JUNCTION        3.73          0.570        0.170
  YS02001901           JUNCTION        3.84          0.702        0.168
  YS02001904           JUNCTION        3.82          0.652        0.198
  YS02001907           JUNCTION        4.27          0.950        0.000
  YS02001910           JUNCTION        3.94          1.014        0.086
  YS02001915           JUNCTION        3.77          1.000        0.000
  YS02001918           JUNCTION        3.55          0.810        0.000
  YS02001619           JUNCTION        6.65          0.610        0.000
  YS02001629           JUNCTION        6.64          0.470        0.000
  YS02001641           JUNCTION        6.67          0.970        0.130
  YS02001644           JUNCTION        6.67          0.920        0.000
  YS02001652           JUNCTION        6.65          1.121        0.009
  YS02001655           JUNCTION        6.64          1.200        0.000
  YS02001920           JUNCTION        3.58          1.111        0.029
  YS02001923           JUNCTION        2.13          0.820        0.000
  YS02001926           JUNCTION        2.28          0.900        0.000
  YS02001929           JUNCTION        1.63          0.780        0.000
  YS02001658           JUNCTION        6.63          1.300        0.000
  YS02001661           JUNCTION        2.60          1.364        0.026
  YS02001664           JUNCTION        1.29          1.310        0.000
  YS02001622           JUNCTION        6.65          0.620        0.000
  YS02001633           JUNCTION        6.67          1.060        0.000
  YS02001649           JUNCTION        6.67          1.050        0.000
  YS02001757           JUNCTION        6.69          1.210        0.000
  YS02001895           JUNCTION        3.74          0.587        0.163
  YS02001625           JUNCTION        6.65          0.780        0.000
  YS02163301           JUNCTION        6.66          0.954        0.076
  YS02163601           JUNCTION        6.67          1.078        0.002
  YS02164001           JUNCTION        6.67          0.976        0.124
  YS02001647           JUNCTION        6.65          0.802        0.098
  YSB1154              JUNCTION        1.57          0.728        0.672
  YSB6556              JUNCTION        1.01          0.609        0.491
  YSB1174              JUNCTION        1.33          0.668        0.582
  YSB1171              JUNCTION        1.58          0.719        0.381
  YS02006553           JUNCTION        4.35          1.118        0.072
  YS02006561           JUNCTION        3.65          0.635        0.515
  YS02006556           JUNCTION        4.09          1.267        0.083
  YS02006558           JUNCTION        4.06          1.372        0.028
  YS02001783           JUNCTION        4.14          0.983        0.617
  YS02001784           JUNCTION        4.21          0.893        0.597
  YS02001786           JUNCTION        4.15          0.998        0.432
  YS02001788           JUNCTION        4.13          0.975        0.505
  YS02001790           JUNCTION        6.63          1.157        0.000
  YS02001791           JUNCTION        6.63          1.056        0.864
  YS02001793           JUNCTION        6.65          1.023        1.577
  
  
  *********************
  Node Flooding Summary
  *********************
  
  Flooding refers to all water that overflows a node, whether it ponds or not.
  --------------------------------------------------------------------------
                                                             Total   Maximum
                                 Maximum   Time of Max       Flood    Ponded
                        Hours       Rate    Occurrence      Volume     Depth
  Node                 Flooded       LPS   days hr:min    10^6 ltr    Meters
  --------------------------------------------------------------------------
  HS02004901              0.04     37.33      0  03:01       0.003     0.000
  YS02001748              0.36    493.26      0  03:01       0.306     0.000
  YS02001751              0.01      0.25      0  03:03       0.000     0.000
  YS02001762              0.05      1.09      0  03:07       0.000     0.000
  YS02001770              2.31   3014.43      0  03:01      11.860     0.000
  YS02001779              4.16    851.47      0  03:03       9.527     0.000
  YS02001882              0.01      0.56      0  02:51       0.000     0.000
  YS02001884              0.01      0.80      0  03:01       0.000     0.000
  YS02001759              0.71    955.89      0  03:01       1.118     0.000
  YS02001887              0.97   1309.11      0  03:01       2.070     0.000
  YS02001890              2.50   1536.30      0  03:07       9.186     0.000
  YS02001907              3.37   4596.82      0  03:01      27.149     0.000
  YS02001915              1.24   1570.61      0  03:01       3.515     0.000
  YS02001918              0.47    317.85      0  03:01       0.253     0.000
  YS02001619              1.58   1477.51      0  03:01       3.653     0.000
  YS02001629              1.82    686.79      0  03:05       2.892     0.000
  YS02001644              5.93   4525.83      0  03:01      35.314     0.000
  YS02001655              0.28    302.86      0  03:01       0.178     0.000
  YS02001923              0.01     64.36      0  01:26       0.000     0.000
  YS02001926              0.01    230.25      0  01:26       0.001     0.000
  YS02001929              0.01    200.42      0  01:26       0.001     0.000
  YS02001658              0.06     51.79      0  03:01       0.008     0.000
  YS02001664              0.03     44.94      0  03:01       0.002     0.000
  YS02001622              0.01    170.38      0  01:21       0.000     0.000
  YS02001633              0.62    779.60      0  03:01       0.806     0.000
  YS02001649              2.37   2390.11      0  03:03      11.711     0.000
  YS02001757              1.83   2553.65      0  03:03      10.204     0.000
  YS02001625              4.34   1505.26      0  03:05      14.349     0.000
  YS02001790              0.01    140.35      0  01:22       0.000     0.000
  JK-storage              6.63   1110.55      0  03:01      17.186     0.000
  XR-storage              6.60   6546.02      0  03:01      50.374     0.000
  
  
  **********************
  Storage Volume Summary
  **********************
  
  --------------------------------------------------------------------------------------------------
                         Average     Avg  Evap Exfil       Maximum     Max    Time of Max    Maximum
                          Volume    Pcnt  Pcnt  Pcnt        Volume    Pcnt     Occurrence    Outflow
  Storage Unit           1000 m3    Full  Loss  Loss       1000 m3    Full    days hr:min        LPS
  --------------------------------------------------------------------------------------------------
  JK-storage               0.279      96     0     0         0.291     100       0  01:22       0.00
  CC-storage               3.153      20     0     0         4.038      26       0  02:32     400.00
  XR-storage               0.901      97     0     0         0.926     100       0  01:23     190.00
  
  
  ***********************
  Outfall Loading Summary
  ***********************
  
  ---------------------------------------------------------------------------------------------------------------------------------
                         Flow       Avg       Max       Total         Total         Total         Total         Total         Total
                         Freq      Flow      Flow      Volume           COD            SS            TN            TP         NH4-N
  Outfall Node           Pcnt       LPS       LPS    10^6 ltr            kg            kg            kg            kg            kg
  ---------------------------------------------------------------------------------------------------------------------------------
  WSC                   99.99    333.44    946.46       6.973       952.190      1745.312        34.910         3.412        19.262
  3                     92.36    355.38   1197.26       6.823       865.226      1637.384        21.926         1.711        11.022
  4                     99.99    435.19   1232.15      10.683      1215.230      2375.848        27.854         2.036        13.852
  5                     99.99    268.37    458.53       7.068       792.758      1380.227        45.236         5.060        26.694
  ---------------------------------------------------------------------------------------------------------------------------------
  System                98.08   1392.37   3822.28      31.548      3825.405      7138.771       129.926        12.220        70.830
  
  
  ********************
  Link Flow Summary
  ********************
  
  -----------------------------------------------------------------------------
                                 Maximum  Time of Max   Maximum    Max/    Max/
                                  |Flow|   Occurrence   |Veloc|    Full    Full
  Link                 Type          LPS  days hr:min     m/sec    Flow   Depth
  -----------------------------------------------------------------------------
  WS02003066WSF200     CONDUIT   1190.59     0  03:01      3.52    0.20    0.34
  WS02006287WS02006284 CONDUIT   1986.25     0  03:01      3.06    0.92    1.00
  WS02006284WS02006280 CONDUIT   1986.17     0  03:01      3.31    0.83    1.00
  WS02006280WS02006229 CONDUIT   1986.06     0  03:01      5.13    0.42    1.00
  WS02006229WS02006228 CONDUIT   1086.28     0  03:01      2.16    3.60    1.00
  WS02006256WS02006235 CONDUIT     17.82     0  01:18      0.68    0.19    1.00
  WS02006253WS02006251 CONDUIT   1141.47     0  03:01      3.01    3.42    0.96
  WS02006252WS02006251 CONDUIT    400.84     0  03:04      3.19    1.47    1.00
  WS02006251WS02006249 CONDUIT    309.08     0  03:01      1.02    0.89    0.74
  WS02006249WS02006248 CONDUIT    307.37     0  03:01      1.08    1.68    0.69
  WS02006248WS02006247 CONDUIT    306.19     0  03:02      1.05    0.67    0.71
  WS02006247WS02006245 CONDUIT    305.01     0  03:02      1.03    2.42    0.72
  WS02006245WS02006243 CONDUIT    304.03     0  03:02      1.06    0.90    0.70
  WS02006243WS02006242 CONDUIT    303.38     0  03:02      0.97    0.65    0.76
  WS02006242WS02006240 CONDUIT    303.39     0  03:03      0.94    1.20    0.78
  WS02006240WS02006239 CONDUIT    304.08     0  03:03      1.04    0.96    0.71
  WS02006239WS02006238 CONDUIT    304.40     0  03:03      0.99    0.97    0.75
  WS02006238WS02006235 CONDUIT    304.47     0  03:03      1.47    0.68    0.75
  WS02006235WS02006234 CONDUIT    910.79     0  03:01      2.45    9.61    0.92
  WS02006234WS02006232 CONDUIT    910.66     0  03:01      2.37    1.84    1.00
  WS02006232WS02006231 CONDUIT    910.64     0  03:01      2.37    1.91    1.00
  WS02006231WS02006230 CONDUIT    910.55     0  03:01      2.37   13.81    1.00
  WS02006230WS02006229 CONDUIT    900.26     0  03:01      2.34   20.03    1.00
  WS02006228WS02006109 CONDUIT   1086.37     0  03:01      2.16    4.75    1.00
  WS02006116WS02004401 CONDUIT   1191.55     0  03:01      1.52    1.64    1.00
  WS02006115WS02006116 CONDUIT   1191.57     0  03:01      1.52    1.53    1.00
  WS02006113WS02006111 CONDUIT   1088.15     0  03:01      2.59    1.30    1.00
  WS02006112WS02006115 CONDUIT   1191.61     0  03:01      1.52    0.70    1.00
  WS02006111WS02006112 CONDUIT   1087.96     0  03:01      2.16    0.52    1.00
  WS02006110WS02006113 CONDUIT   1088.02     0  03:01      2.16    0.99    1.00
  WS02006109WS02006110 CONDUIT   1087.46     0  03:01      2.16    2.09    1.00
  WS02004411WS02004412 CONDUIT   1190.58     0  03:01      1.52    1.69    1.00
  WS02004401WS02004402 CONDUIT   1191.55     0  03:01      1.52    1.43    1.00
  WS02004413WS02003067 CONDUIT   1190.21     0  03:01      1.88    0.51    0.75
  WS02004412WS02004413 CONDUIT   1190.24     0  03:01      1.52    0.80    1.00
  WS02004410WS02004411 CONDUIT   1191.12     0  03:01      1.52    1.63    1.00
  WS02004409WS02004410 CONDUIT   1190.34     0  03:01      1.52    1.54    1.00
  WS02004407WS02004409 CONDUIT   1190.58     0  03:01      1.70    0.42    0.87
  WS02004406WS02004407 CONDUIT   1192.08     0  03:01      1.67    0.53    0.87
  WS02004405WS02004406 CONDUIT   1191.95     0  03:01      1.52    2.35    1.00
  WS02004404WS02004405 CONDUIT   1191.70     0  03:01      1.52   11.68    1.00
  WS02004403WS02004404 CONDUIT   1191.59     0  03:01      1.52    0.86    1.00
  WS02004402WS02004403 CONDUIT   1191.53     0  03:01      1.52    1.71    1.00
  WS02004139WS02001211 CONDUIT    268.28     0  03:03      1.10    0.34    0.27
  WS02004138WS02004139 CONDUIT    192.83     0  00:00      2.96    0.04    0.18
  WS02003067WS02003066 CONDUIT   1190.51     0  03:01      1.94    0.38    0.53
  WS02001213WS02003059 CONDUIT    261.39     0  03:02      0.44    0.43    0.70
  WS02001212WS02001213 CONDUIT    261.17     0  03:02      1.32    0.40    0.33
  WS02001211WS02001212 CONDUIT    261.02     0  03:03      0.92    0.20    0.39
  WS02003072WS02003073 CONDUIT    944.99     0  03:03      1.73    2.04    0.49
  WS02003069WS02003072 CONDUIT    945.24     0  03:02      1.62    0.46    0.51
  WS02003060WS02003069 CONDUIT    945.27     0  03:02      1.87    0.37    0.46
  WS02003059WS02003060 CONDUIT    261.73     0  03:02      0.82    0.17    0.64
  HS02004901HS02004770 CONDUIT    124.95     0  02:58      0.18    0.47    1.00
  HS02004876HS02004881 CONDUIT   1161.88     0  03:02      3.15   12.36    0.54
  HS02004870HS02004876 CONDUIT   1015.26     0  03:01      2.14    0.67    0.71
  HS02004842HS02004848 CONDUIT    534.95     0  03:01      0.86    0.31    0.89
  HS02004837HS02004842 CONDUIT    534.63     0  03:01      0.80    0.32    0.95
  HS02004830HS02004837 CONDUIT    394.23     0  03:01      0.69    0.39    0.95
  HS02004824HS02004830 CONDUIT    394.27     0  03:01      0.67    0.52    1.00
  HS02004817HS02004824 CONDUIT    290.30     0  03:08      0.57    0.13    1.00
  HS02004770HS02004777 CONDUIT    682.50     0  02:59      0.97    1.25    1.00
  HS02004799HS02004480 CONDUIT   1732.97     0  03:01      2.48    2.19    1.00
  HS02004792HS02004799 CONDUIT   1613.15     0  03:00      2.30    0.99    1.00
  HS02004788HS02004792 CONDUIT    886.76     0  02:59      1.52    0.59    1.00
  HS02004785HS02004788 CONDUIT    682.10     0  02:59      1.44    5.14    1.00
  HS02004777HS02004785 CONDUIT    682.30     0  02:59      0.97    0.84    1.00
  HS02004480HS02004478 CONDUIT   1985.74     0  03:01      2.84    8.36    1.00
  HS02004479HS02004480 CONDUIT    254.01     0  03:01      0.53    0.25    1.00
  HS02004862HS02004870 CONDUIT    939.89     0  03:01      1.94    1.02    0.70
  HS02004848HS02004852 CONDUIT    779.55     0  03:01      1.40    0.88    0.80
  HS02004856HS02004862 CONDUIT    835.41     0  03:01      1.62    0.83    0.74
  HS02004852HS02004856 CONDUIT    778.64     0  03:01      1.35    0.89    0.82
  HS02004802HS02004478 CONDUIT    398.95     0  03:07      0.75    0.35    1.00
  HS02004478WS02006287 CONDUIT   1986.45     0  03:01      2.86    0.56    1.00
  HS02004817HS02004807 CONDUIT    290.89     0  03:08      0.47    0.17    1.00
  HS02004807HS02004802 CONDUIT    369.15     0  03:07      0.65    0.70    1.00
  YS02001759YS02001757 CONDUIT   1407.29     0  02:45      1.79    1.00    1.00
  YS02001762YS02001759 CONDUIT    722.49     0  03:07      0.92    0.83    1.00
  YS02001765YS02001762 CONDUIT    722.14     0  03:07      0.92    0.68    1.00
  YS02001770YS02001767 CONDUIT    722.66     0  03:07      0.92    2.86    1.00
  YS02001774YS02001770 CONDUIT    852.03     0  03:04      1.08    0.54    1.00
  YS02001779YS02001774 CONDUIT    851.75     0  03:03      1.08    0.43    1.00
  YS02001649YS02001757 CONDUIT    807.83     0  02:35      1.03    0.49    1.00
  YS02001767YS02001765 CONDUIT    722.22     0  03:03      0.92    0.91    1.00
  YS02006561YS02001783 CONDUIT   1108.95     0  03:01      2.21    0.57    1.00
  YS02001783YS02001784 CONDUIT   1108.90     0  03:01      2.21    1.53    1.00
  YS02001784YS02001785 CONDUIT   1109.84     0  03:01      2.21    2.58    1.00
  YS02001788YS02001790 CONDUIT   1110.05     0  03:01      2.32    0.82    1.00
  YS02001790YS02001791 CONDUIT   1110.44     0  03:01      2.72    1.21    1.00
  YS02001791YS02001793 CONDUIT   1110.38     0  03:01      4.96    0.48    1.00
  YS02001910YS02001907 CONDUIT   1993.04     0  03:05      2.54    1.12    1.00
  YS02001786YS02001788 CONDUIT   1110.06     0  03:01      2.22    2.14    1.00
  YS02001915YS02001910 CONDUIT   1993.19     0  03:04      2.54    0.99    1.00
  YS02001918YS02001915 CONDUIT   1221.69     0  03:10      1.56    0.67    1.00
  YS02001923YS02001920 CONDUIT   1536.40     0  03:01      1.96    0.69    1.00
  YS02001926YS02001923 CONDUIT   1536.30     0  03:01      1.96    2.19    1.00
  YS02001929YS02001926 CONDUIT   1535.80     0  03:01      1.96    0.73    1.00
  YS02001920YS02001918 CONDUIT   1540.16     0  03:01      1.96    1.49    1.00
  YS02001629YS02163301 CONDUIT   1138.91     0  03:05      1.45    1.40    1.00
  YS02001619YS02001622 CONDUIT   1053.94     0  03:03      1.34    1.55    1.00
  YS02001622YS02001625 CONDUIT   1053.69     0  03:03      1.34    0.56    1.00
  YS02001625YS02001629 CONDUIT    451.78     0  03:09      0.58    0.21    1.00
  YS02163301YS02001633 CONDUIT   1138.91     0  03:05      1.45    1.07    1.00
  YS02163601YS02164001 CONDUIT    906.22     0  03:05      1.15    0.80    1.00
  YS02164001YS02001641 CONDUIT    906.20     0  03:05      1.15    1.24    1.00
  YS02001641YS02001644 CONDUIT    905.90     0  03:03      1.15    2.93    1.00
  YS02001647YS02001649 CONDUIT    846.70     0  03:02      1.08    0.45    1.00
  YS02006553YS02006556 CONDUIT   2088.38     0  03:01      2.66    1.79    1.00
  YS02006556YS02006558 CONDUIT   2087.75     0  03:01      2.66    1.65    1.00
  YSB6556YSB1171       CONDUIT    142.04     0  03:01      0.37    0.15    1.00
  YS02001907YS02006553 CONDUIT   2088.70     0  03:01      2.32    2.46    1.00
  YS02006558YS02006561 CONDUIT   1108.90     0  03:01      3.92    2.45    1.00
  YS02001633YS02163601 CONDUIT    905.56     0  03:03      1.15    0.95    1.00
  YS02001644YS02001647 CONDUIT    846.70     0  03:02      1.08    0.50    1.00
  YS02001745YS02001748 CONDUIT   2846.92     0  03:01      3.62    1.10    1.00
  YS02001748YS02001751 CONDUIT   2354.07     0  03:03      3.00    1.19    1.00
  YS02001751YS02001754 CONDUIT   2354.76     0  03:03      3.00    1.14    1.00
  YS02001754YS02001757 CONDUIT   2354.54     0  03:03      3.00    0.95    1.00
  YS02001882YS02001884 CONDUIT     85.46     0  01:23      0.28    0.10    1.00
  YS02001884YS02001887 CONDUIT     91.12     0  01:23      0.21    0.12    1.00
  YS02001890YS02001895 CONDUIT    585.29     0  01:25      0.75    0.27    1.00
  YS02001895YS02001898 CONDUIT    586.51     0  01:25      0.76    1.02    1.00
  YS02001898YS02001901 CONDUIT    588.39     0  01:25      0.75    0.38    1.00
  YS02001901YS02001904 CONDUIT    589.42     0  01:25      0.75    0.91    1.00
  YS02001904YS02001907 CONDUIT    591.10     0  01:25      0.75    0.21    1.00
  YS02001887YS02001890 CONDUIT   2052.03     0  02:25      2.61    3.51    1.00
  YS02001652YS02001649 CONDUIT   2429.31     0  03:02      3.09    1.20    1.00
  YS02001655YS02001652 CONDUIT   2429.27     0  03:03      3.09    1.18    1.00
  YS02001658YS02001655 CONDUIT   2731.29     0  03:01      3.48    1.16    1.00
  YS02001661YS02001658 CONDUIT   2783.08     0  03:01      3.54    1.09    1.00
  YS02001664YS02001661 CONDUIT   2783.08     0  03:01      3.54    0.87    1.00
  YSB1154YSB6556       CONDUIT    142.11     0  03:01      0.37    0.26    1.00
  YSB1174YSB1171       CONDUIT    111.72     0  03:01      0.29    0.17    1.00
  YSB1171HS02004479    CONDUIT    253.61     0  03:01      0.54    0.17    1.00
  HS02004881HS02006253 CONDUIT   1184.08     0  03:02      3.05    0.23    0.64
  YS02001793JiankangQianchi CONDUIT   1110.75     0  03:01      1.41    0.09    1.00
  YS02001757CaochengTiaoxuchi CONDUIT   2246.30     0  01:41      3.88    0.99    1.00
  WSF200WS02003060     CONDUIT   1190.72     0  03:02      2.83    0.26    0.40
  1                    CONDUIT    946.46     0  03:03      3.28    0.33    0.40
  CC-Pump-1            PUMP       200.00     0  01:17              1.00
  CC-Pump-2            PUMP       200.00     0  01:17              1.00
  JK-Pump-1            PUMP         0.00     0  00:00              0.00
  JK-Pump-2            PUMP         0.00     0  00:00              0.00
  XR-Pump-1            PUMP        95.00     0  00:00              1.00
  XR-Pump-2            PUMP        95.00     0  00:00              1.00
  XR-Pump-3            PUMP         0.00     0  00:00              0.00
  XR-Pump-4            PUMP         0.00     0  00:00              0.00
  3                    WEIR      1232.15     0  03:01                      0.52
  5                    WEIR      1197.26     0  03:01                      0.51
  6                    WEIR       458.53     0  03:04                      0.27
  
  
  ***************************
  Flow Classification Summary
  ***************************
  
  -------------------------------------------------------------------------------------
                      Adjusted    ---------- Fraction of Time in Flow Class ---------- 
                       /Actual         Up    Down  Sub   Sup   Up    Down  Norm  Inlet 
  Conduit               Length    Dry  Dry   Dry   Crit  Crit  Crit  Crit  Ltd   Ctrl  
  -------------------------------------------------------------------------------------
  WS02003066WSF200        1.00   0.11  0.00  0.00  0.00  0.89  0.00  0.00  0.59  0.00
  WS02006287WS02006284    1.00   0.04  0.02  0.00  0.42  0.32  0.00  0.19  0.61  0.00
  WS02006284WS02006280    1.00   0.06  0.00  0.00  0.08  0.03  0.00  0.83  0.00  0.00
  WS02006280WS02006229    1.00   0.06  0.00  0.00  0.14  0.09  0.00  0.71  0.00  0.00
  WS02006229WS02006228    1.00   0.00  0.00  0.00  1.00  0.00  0.00  0.00  0.00  0.00
  WS02006256WS02006235    1.00   0.08  0.00  0.00  0.92  0.01  0.00  0.00  0.00  0.00
  WS02006253WS02006251    1.00   0.02  0.03  0.00  0.56  0.00  0.40  0.00  0.00  0.00
  WS02006252WS02006251    1.00   0.08  0.00  0.00  0.00  0.00  0.92  0.00  0.00  0.00
  WS02006251WS02006249    1.00   0.00  0.00  0.00  1.00  0.00  0.00  0.00  0.13  0.00
  WS02006249WS02006248    1.00   0.00  0.06  0.00  0.91  0.00  0.03  0.00  0.00  0.00
  WS02006248WS02006247    1.00   0.06  0.00  0.00  0.93  0.00  0.00  0.02  0.00  0.00
  WS02006247WS02006245    1.00   0.06  0.00  0.00  0.91  0.00  0.00  0.03  0.00  0.00
  WS02006245WS02006243    1.00   0.06  0.00  0.00  0.90  0.00  0.00  0.03  0.00  0.00
  WS02006243WS02006242    1.00   0.07  0.00  0.00  0.90  0.00  0.00  0.03  0.57  0.00
  WS02006242WS02006240    1.00   0.07  0.02  0.00  0.90  0.00  0.01  0.00  0.00  0.00
  WS02006240WS02006239    1.00   0.09  0.00  0.00  0.91  0.00  0.00  0.00  0.00  0.00
  WS02006239WS02006238    1.00   0.08  0.01  0.00  0.89  0.00  0.00  0.02  0.00  0.00
  WS02006238WS02006235    1.00   0.08  0.00  0.00  0.41  0.51  0.00  0.00  0.00  0.00
  WS02006235WS02006234    1.00   0.08  0.00  0.00  0.05  0.00  0.43  0.45  0.00  0.00
  WS02006234WS02006232    1.00   0.07  0.01  0.00  0.93  0.00  0.00  0.00  0.00  0.00
  WS02006232WS02006231    1.00   0.07  0.00  0.00  0.93  0.00  0.00  0.00  0.00  0.00
  WS02006231WS02006230    1.00   0.07  0.00  0.00  0.51  0.00  0.43  0.00  0.00  0.00
  WS02006230WS02006229    1.00   0.00  0.00  0.00  0.99  0.00  0.00  0.01  0.00  0.00
  WS02006228WS02006109    1.00   0.00  0.00  0.00  1.00  0.00  0.00  0.00  0.00  0.00
  WS02006116WS02004401    1.00   0.05  0.00  0.00  0.95  0.00  0.00  0.00  0.00  0.00
  WS02006115WS02006116    1.00   0.05  0.00  0.00  0.93  0.00  0.00  0.03  0.00  0.00
  WS02006113WS02006111    1.00   0.03  0.00  0.00  0.32  0.65  0.00  0.00  0.04  0.00
  WS02006112WS02006115    1.00   0.03  0.02  0.00  0.95  0.00  0.00  0.00  0.00  0.00
  WS02006111WS02006112    1.00   0.03  0.00  0.00  0.96  0.00  0.00  0.00  0.69  0.00
  WS02006110WS02006113    1.00   0.00  0.02  0.00  0.97  0.00  0.00  0.00  0.00  0.00
  WS02006109WS02006110    1.00   0.00  0.00  0.00  0.99  0.00  0.01  0.00  0.00  0.00
  WS02004411WS02004412    1.00   0.09  0.00  0.00  0.91  0.00  0.00  0.00  0.00  0.00
  WS02004401WS02004402    1.00   0.05  0.00  0.00  0.95  0.00  0.00  0.00  0.01  0.00
  WS02004413WS02003067    1.00   0.10  0.01  0.00  0.00  0.00  0.89  0.00  0.00  0.00
  WS02004412WS02004413    1.00   0.09  0.00  0.00  0.90  0.00  0.00  0.00  0.00  0.00
  WS02004410WS02004411    1.00   0.09  0.00  0.00  0.91  0.00  0.00  0.00  0.00  0.00
  WS02004409WS02004410    1.00   0.09  0.00  0.00  0.91  0.00  0.00  0.00  0.00  0.00
  WS02004407WS02004409    1.00   0.09  0.00  0.00  0.90  0.02  0.00  0.00  0.70  0.00
  WS02004406WS02004407    1.00   0.00  0.09  0.00  0.91  0.00  0.00  0.00  0.00  0.00
  WS02004405WS02004406    1.00   0.00  0.00  0.00  1.00  0.00  0.00  0.00  0.04  0.00
  WS02004404WS02004405    1.00   0.00  0.00  0.00  1.00  0.00  0.00  0.00  0.00  0.00
  WS02004403WS02004404    1.00   0.00  0.05  0.00  0.95  0.00  0.00  0.00  0.04  0.00
  WS02004402WS02004403    1.00   0.05  0.00  0.00  0.95  0.00  0.00  0.00  0.00  0.00
  WS02004139WS02001211    1.00   0.00  0.00  0.00  1.00  0.00  0.00  0.00  0.00  0.00
  WS02004138WS02004139    1.00   0.00  0.00  0.00  0.00  0.37  0.00  0.63  0.24  0.00
  WS02003067WS02003066    1.00   0.11  0.00  0.00  0.89  0.00  0.00  0.00  0.00  0.00
  WS02001213WS02003059    1.00   0.00  0.00  0.00  1.00  0.00  0.00  0.00  0.00  0.00
  WS02001212WS02001213    1.00   0.01  0.47  0.00  0.51  0.01  0.00  0.00  0.45  0.00
  WS02001211WS02001212    1.00   0.00  0.00  0.00  1.00  0.00  0.00  0.00  0.57  0.00
  WS02003072WS02003073    1.00   0.00  0.00  0.00  0.00  0.00  0.00  1.00  0.00  0.00
  WS02003069WS02003072    1.00   0.00  0.00  0.00  1.00  0.00  0.00  0.00  0.73  0.00
  WS02003060WS02003069    1.00   0.00  0.00  0.00  0.98  0.02  0.00  0.00  0.73  0.00
  WS02003059WS02003060    1.00   0.00  0.00  0.00  1.00  0.00  0.00  0.00  0.08  0.00
  HS02004901HS02004770    1.00   0.05  0.00  0.00  0.95  0.00  0.00  0.00  0.00  0.00
  HS02004876HS02004881    1.00   0.01  0.00  0.00  0.54  0.45  0.00  0.00  0.00  0.00
  HS02004870HS02004876    1.00   0.00  0.00  0.00  0.99  0.00  0.00  0.00  0.83  0.00
  HS02004842HS02004848    1.00   0.00  0.05  0.00  0.95  0.00  0.00  0.00  0.50  0.00
  HS02004837HS02004842    1.00   0.00  0.00  0.00  1.00  0.00  0.00  0.00  0.11  0.00
  HS02004830HS02004837    1.00   0.00  0.00  0.00  1.00  0.00  0.00  0.00  0.80  0.00
  HS02004824HS02004830    1.00   0.00  0.00  0.00  1.00  0.00  0.00  0.00  0.01  0.00
  HS02004817HS02004824    1.00   0.00  0.00  0.00  1.00  0.00  0.00  0.00  0.74  0.00
  HS02004770HS02004777    1.00   0.00  0.05  0.00  0.95  0.00  0.00  0.00  0.00  0.00
  HS02004799HS02004480    1.00   0.00  0.01  0.00  0.94  0.00  0.04  0.00  0.00  0.00
  HS02004792HS02004799    1.00   0.00  0.00  0.00  1.00  0.00  0.00  0.00  0.76  0.00
  HS02004788HS02004792    1.00   0.00  0.00  0.00  1.00  0.00  0.00  0.00  0.91  0.00
  HS02004785HS02004788    1.00   0.00  0.00  0.00  1.00  0.00  0.00  0.00  0.00  0.00
  HS02004777HS02004785    1.00   0.00  0.00  0.00  1.00  0.00  0.00  0.00  0.10  0.00
  HS02004480HS02004478    1.00   0.06  0.00  0.00  0.46  0.00  0.00  0.48  0.00  0.00
  HS02004479HS02004480    1.00   0.02  0.00  0.00  0.98  0.00  0.00  0.00  0.09  0.00
  HS02004862HS02004870    1.00   0.00  0.00  0.00  1.00  0.00  0.00  0.00  0.01  0.00
  HS02004848HS02004852    1.00   0.05  0.00  0.00  0.95  0.00  0.00  0.00  0.69  0.00
  HS02004856HS02004862    1.00   0.00  0.06  0.00  0.94  0.00  0.00  0.00  0.72  0.00
  HS02004852HS02004856    1.00   0.05  0.00  0.00  0.94  0.00  0.00  0.00  0.60  0.00
  HS02004802HS02004478    1.00   0.06  0.00  0.00  0.94  0.00  0.00  0.00  0.01  0.00
  HS02004478WS02006287    1.00   0.06  0.00  0.00  0.50  0.44  0.00  0.00  0.55  0.00
  HS02004817HS02004807    1.00   0.00  0.05  0.00  0.95  0.00  0.00  0.00  0.01  0.00
  HS02004807HS02004802    1.00   0.05  0.00  0.00  0.94  0.00  0.00  0.00  0.00  0.00
  YS02001759YS02001757    1.00   0.00  0.00  0.00  1.00  0.00  0.00  0.00  0.14  0.00
  YS02001762YS02001759    1.00   0.00  0.00  0.00  1.00  0.00  0.00  0.00  0.01  0.00
  YS02001765YS02001762    1.00   0.00  0.00  0.00  1.00  0.00  0.00  0.00  0.12  0.00
  YS02001770YS02001767    1.00   0.00  0.00  0.00  1.00  0.00  0.00  0.00  0.00  0.00
  YS02001774YS02001770    1.00   0.00  0.05  0.00  0.94  0.00  0.00  0.00  0.01  0.00
  YS02001779YS02001774    1.00   0.00  0.00  0.00  1.00  0.00  0.00  0.00  0.14  0.00
  YS02001649YS02001757    1.00   0.00  0.00  0.00  1.00  0.00  0.00  0.00  0.14  0.00
  YS02001767YS02001765    1.00   0.00  0.00  0.00  1.00  0.00  0.00  0.00  0.00  0.00
  YS02006561YS02001783    1.00   0.06  0.00  0.00  0.90  0.03  0.00  0.00  0.31  0.00
  YS02001783YS02001784    1.00   0.00  0.06  0.00  0.94  0.00  0.00  0.00  0.00  0.00
  YS02001784YS02001785    1.00   0.00  0.00  0.00  1.00  0.00  0.00  0.00  0.14  0.00
  YS02001788YS02001790    1.00   0.00  0.00  0.00  0.97  0.03  0.00  0.00  0.15  0.00
  YS02001790YS02001791    1.00   0.00  0.00  0.00  0.91  0.09  0.00  0.00  0.01  0.00
  YS02001791YS02001793    1.00   0.00  0.00  0.00  0.90  0.10  0.00  0.00  0.00  0.00
  YS02001910YS02001907    1.00   0.00  0.00  0.00  0.99  0.00  0.00  0.01  0.11  0.00
  YS02001786YS02001788    1.00   0.00  0.00  0.00  0.97  0.03  0.00  0.00  0.00  0.00
  YS02001915YS02001910    1.00   0.00  0.00  0.00  0.99  0.01  0.00  0.00  0.11  0.00
  YS02001918YS02001915    1.00   0.00  0.00  0.00  0.99  0.01  0.00  0.00  0.35  0.00
  YS02001923YS02001920    1.00   0.00  0.00  0.00  1.00  0.00  0.00  0.00  0.50  0.00
  YS02001926YS02001923    1.00   0.00  0.03  0.00  0.59  0.00  0.38  0.00  0.00  0.00
  YS02001929YS02001926    1.00   0.00  0.05  0.00  0.95  0.00  0.00  0.00  0.42  0.00
  YS02001920YS02001918    1.00   0.00  0.00  0.00  1.00  0.00  0.00  0.00  0.00  0.00
  YS02001629YS02163301    1.00   0.06  0.00  0.00  0.94  0.00  0.00  0.00  0.00  0.00
  YS02001619YS02001622    1.00   0.05  0.00  0.00  0.95  0.00  0.00  0.00  0.00  0.00
  YS02001622YS02001625    1.00   0.05  0.00  0.00  0.94  0.00  0.00  0.00  0.01  0.00
  YS02001625YS02001629    1.00   0.05  0.01  0.00  0.92  0.00  0.01  0.00  0.00  0.00
  YS02163301YS02001633    1.00   0.00  0.06  0.00  0.94  0.00  0.00  0.00  0.00  0.00
  YS02163601YS02164001    1.00   0.00  0.03  0.00  0.97  0.00  0.00  0.00  0.00  0.00
  YS02164001YS02001641    1.00   0.00  0.03  0.00  0.96  0.00  0.00  0.00  0.05  0.00
  YS02001641YS02001644    1.00   0.00  0.00  0.00  1.00  0.00  0.00  0.00  0.00  0.00
  YS02001647YS02001649    1.00   0.00  0.06  0.00  0.94  0.00  0.00  0.00  0.01  0.00
  YS02006553YS02006556    1.00   0.01  0.00  0.00  0.99  0.00  0.00  0.00  0.03  0.00
  YS02006556YS02006558    1.00   0.00  0.00  0.00  1.00  0.00  0.00  0.00  0.00  0.00
  YSB6556YSB1171          1.00   0.02  0.04  0.00  0.95  0.00  0.00  0.00  0.00  0.00
  YS02001907YS02006553    1.00   0.00  0.01  0.00  0.99  0.00  0.00  0.00  0.00  0.00
  YS02006558YS02006561    1.00   0.06  0.00  0.00  0.62  0.32  0.00  0.00  0.27  0.00
  YS02001633YS02163601    1.00   0.00  0.00  0.00  1.00  0.00  0.00  0.00  0.13  0.00
  YS02001644YS02001647    1.00   0.00  0.06  0.00  0.94  0.00  0.00  0.00  0.00  0.00
  YS02001745YS02001748    1.00   0.00  0.00  0.00  0.90  0.00  0.00  0.09  0.00  0.00
[...]
  YS02001790YS02001791        6.63      6.63      6.63      3.48         3.47
  YS02001791YS02001793        6.63      6.63      6.66      0.01         0.01
  YS02001910YS02001907        3.94      3.94      4.27      1.43         1.43
  YS02001786YS02001788        4.13      4.15      4.13      4.36         4.13
  YS02001915YS02001910        3.77      3.77      3.94      0.01         0.01
  YS02001918YS02001915        3.55      3.55      3.77      0.01         0.01
  YS02001923YS02001920        3.39      3.39      3.58      0.01         0.01
  YS02001926YS02001923        2.13      2.13      2.28      1.57         0.01
  YS02001929YS02001926        1.63      1.63      2.28      0.01         0.01
  YS02001920YS02001918        3.54      3.55      3.58      0.80         0.01
  YS02001629YS02163301        6.66      6.66      6.66      1.12         0.01
  YS02001619YS02001622        6.65      6.65      6.65      2.24         2.26
  YS02001622YS02001625        6.65      6.65      6.65      0.01         0.01
  YS02001625YS02001629        6.64      6.64      6.65      0.01         0.01
  YS02163301YS02001633        6.66      6.66      6.67      0.72         0.01
  YS02163601YS02164001        6.67      6.67      6.67      0.01         0.01
  YS02164001YS02001641        6.67      6.67      6.67      1.09         1.10
  YS02001641YS02001644        6.67      6.67      6.67      4.51         4.43
  YS02001647YS02001649        6.65      6.65      6.67      0.01         0.01
  YS02006553YS02006556        4.09      4.09      4.35      0.72         0.72
  YS02006556YS02006558        4.14      4.14      4.39      0.63         0.01
  YSB6556YSB1171              1.01      1.01      2.00      0.01         0.01
  YS02001907YS02006553        4.78      4.78      5.01      1.03         1.03
  YS02006558YS02006561        3.84      4.06      3.84      4.61         3.84
  YS02001633YS02163601        6.67      6.67      6.67      0.01         0.01
  YS02001644YS02001647        6.65      6.65      6.67      0.01         0.01
  YS02001745YS02001748        2.44      2.44      6.63      0.17         0.17
  YS02001748YS02001751        6.63      6.63      6.64      0.68         0.68
  YS02001751YS02001754        6.64      6.64      6.65      0.60         0.60
  YS02001754YS02001757        6.65      6.65      6.69      0.01         0.01
  YS02001882YS02001884        3.76      3.76      3.78      0.01         0.01
  YS02001884YS02001887        3.84      3.84      3.86      0.01         0.01
  YS02001890YS02001895        3.74      3.74      3.94      0.01         0.01
  YS02001895YS02001898        3.73      3.73      3.74      0.01         0.01
  YS02001898YS02001901        3.75      3.75      3.84      0.01         0.01
  YS02001901YS02001904        3.82      3.82      3.84      0.01         0.01
  YS02001904YS02001907        3.82      3.82      4.36      0.01         0.01
  YS02001887YS02001890        3.89      3.89      3.91      2.42         0.01
  YS02001652YS02001649        6.65      6.65      6.67      0.62         0.62
  YS02001655YS02001652        6.64      6.64      6.65      0.58         0.58
  YS02001658YS02001655        6.63      6.63      6.64      0.33         0.33
  YS02001661YS02001658        2.60      2.60      6.63      0.18         0.19
  YS02001664YS02001661        1.29      1.29      3.09      0.01         0.01
  YSB1154YSB6556              1.01      1.01      1.57      0.01         0.01
  YSB1174YSB1171              1.33      1.33      1.90      0.01         0.01
  YSB1171HS02004479           0.46      0.46      1.58      0.01         0.01
  HS02004881HS02006253        0.01      0.01      0.02      0.01         0.01
  YS02001793JiankangQianchi        6.65      6.65      7.99      0.01         0.01
  YS02001757CaochengTiaoxuchi        6.15      6.15      6.69      0.01         0.01
  
  
  ***************
  Pumping Summary
  ***************
  
  ---------------------------------------------------------------------------------------------------------
                                                  Min       Avg       Max     Total     Power    % Time Off
                        Percent   Number of      Flow      Flow      Flow    Volume     Usage    Pump Curve
  Pump                 Utilized   Start-Ups       LPS       LPS       LPS  10^6 ltr     Kw-hr    Low   High
  ---------------------------------------------------------------------------------------------------------
  CC-Pump-1               84.24           1      0.00    198.79    200.00     4.838      7.12    0.0    4.0
  CC-Pump-2               84.24           1      0.00    198.79    200.00     4.838      7.12    0.0    4.0
  JK-Pump-1                0.00           0      0.00      0.00      0.00     0.000      0.00    0.0    0.0
  JK-Pump-2                0.00           0      0.00      0.00      0.00     0.000      0.00    0.0    0.0
  XR-Pump-1              100.00           1      0.00     95.00     95.00     2.736     15.45    0.0    0.0
  XR-Pump-2              100.00           1      0.00     95.00     95.00     2.736     15.45    0.0    0.0
  XR-Pump-3                0.00           0      0.00      0.00      0.00     0.000      0.00    0.0    0.0
  XR-Pump-4                0.00           0      0.00      0.00      0.00     0.000      0.00    0.0    0.0
  
  
  ***************************
  Link Pollutant Load Summary
  ***************************
  
  ------------------------------------------------------------------------------------------
                                 COD            SS            TN            TP         NH4-N
  Link                            kg            kg            kg            kg            kg
  ------------------------------------------------------------------------------------------
  WS02003066WSF200          1023.083      1911.296        28.450         2.385        14.630
  WS02006287WS02006284      1550.453      2895.746        43.001         3.574        22.071
  WS02006284WS02006280      1550.725      2896.008        43.047         3.580        22.100
  WS02006280WS02006229      1551.084      2896.908        43.048         3.580        22.100
  WS02006229WS02006228       956.133      1788.051        27.292         2.318        14.141
  WS02006256WS02006235         0.124         0.247         0.003         0.000         0.002
  WS02006253WS02006251       395.259       740.292        10.827         0.831         5.489
  WS02006252WS02006251      1093.330      2170.154        23.261         1.659        11.457
  WS02006251WS02006249       274.117       536.045         6.288         0.460         3.127
  WS02006249WS02006248       273.593       534.971         6.276         0.459         3.121
  WS02006248WS02006247       273.606       535.065         6.275         0.459         3.120
  WS02006247WS02006245       273.352       534.581         6.268         0.459         3.117
  WS02006245WS02006243       273.125       534.179         6.262         0.458         3.114
  WS02006243WS02006242       272.955       533.943         6.254         0.458         3.110
  WS02006242WS02006240       272.570       533.234         6.244         0.457         3.105
  WS02006240WS02006239       272.446       533.038         6.240         0.457         3.103
  WS02006239WS02006238       272.736       533.732         6.243         0.457         3.104
  WS02006238WS02006235       272.722       533.719         6.243         0.457         3.105
  WS02006235WS02006234       600.570      1119.299        15.871         1.268         8.012
  WS02006234WS02006232       601.391      1121.154        15.885         1.269         8.019
  WS02006232WS02006231       601.184      1120.522        15.888         1.270         8.021
  WS02006231WS02006230       601.204      1120.543        15.890         1.270         8.022
  WS02006230WS02006229       601.351      1120.309        15.914         1.272         8.036
  WS02006228WS02006109       955.828      1787.894        27.212         2.308        14.090
  WS02006116WS02004401      1033.425      1927.491        29.405         2.503        15.224
  WS02006115WS02006116      1033.807      1927.818        29.494         2.515        15.281
  WS02006113WS02006111       964.190      1802.544        27.873         2.389        14.500
  WS02006112WS02006115      1035.220      1930.518        29.570         2.524        15.327
  WS02006111WS02006112       962.707      1799.332        27.816         2.383        14.466
  WS02006110WS02006113       963.850      1801.570        27.882         2.391        14.507
  WS02006109WS02006110       964.183      1801.646        27.961         2.401        14.557
  WS02004411WS02004412      1026.912      1918.272        28.687         2.414        14.775
  WS02004401WS02004402      1032.087      1925.154        29.304         2.491        15.162
  WS02004413WS02003067      1023.176      1911.011        28.500         2.392        14.663
  WS02004412WS02004413      1025.891      1916.530        28.597         2.402        14.718
  WS02004410WS02004411      1027.245      1918.587        28.744         2.421        14.811
  WS02004409WS02004410      1027.727      1919.368        28.789         2.427        14.839
  WS02004407WS02004409      1027.759      1919.151        28.824         2.431        14.862
  WS02004406WS02004407      1027.485      1918.385        28.835         2.433        14.869
  WS02004405WS02004406      1029.469      1921.391        29.014         2.455        14.980
  WS02004404WS02004405      1030.122      1921.921        29.142         2.471        15.061
  WS02004403WS02004404      1029.789      1921.399        29.101         2.466        15.036
  WS02004402WS02004403      1031.130      1923.762        29.196         2.477        15.094
  WS02004139WS02001211       256.299       468.062        10.843         1.135         6.176
  WS02004138WS02004139       534.596       909.248        34.218         3.903        20.409
  WS02003067WS02003066      1023.193      1911.536        28.453         2.386        14.633
  WS02001213WS02003059       208.763       392.237         6.246         0.560         3.302
  WS02001212WS02001213       205.066       385.844         5.930         0.521         3.105
  WS02001211WS02001212       205.320       386.671         5.941         0.523         3.113
  WS02003072WS02003073       935.273      1714.437        33.704         3.264        18.517
  WS02003069WS02003072       938.221      1720.435        33.847         3.281        18.603
  WS02003060WS02003069       936.352      1717.268        33.693         3.262        18.509
  WS02003059WS02003060       210.420       394.207         6.348         0.570         3.359
  HS02004901HS02004770        81.579       149.728         2.101         0.170         1.048
  HS02004876HS02004881       356.902       669.036         9.861         0.756         4.998
  HS02004870HS02004876       301.613       565.315         8.452         0.648         4.284
  HS02004842HS02004848        67.005       112.384         2.391         0.203         1.279
  HS02004837HS02004842        70.136       115.245         2.885         0.265         1.594
  HS02004830HS02004837       147.084       267.459         6.567         0.689         3.786
  HS02004824HS02004830       146.409       266.500         6.571         0.690         3.791
  HS02004817HS02004824       251.371       483.227         8.903         0.844         4.939
  HS02004770HS02004777       328.417       624.113         8.628         0.643         4.223
  HS02004799HS02004480      1009.979      1876.722        27.091         2.188        13.605
  HS02004792HS02004799       935.592      1734.542        25.243         2.056        12.676
  HS02004788HS02004792       467.046       877.189        13.139         1.060         6.632
  HS02004785HS02004788       329.842       626.425         8.767         0.661         4.310
  HS02004777HS02004785       329.396       625.893         8.705         0.653         4.271
  HS02004480HS02004478      1213.132      2246.401        32.253         2.608        16.240
  HS02004479HS02004480       208.377       379.043         5.474         0.457         2.823
  HS02004862HS02004870       259.478       481.363         7.393         0.579         3.753
  HS02004848HS02004852       172.678       314.777         5.059         0.402         2.583
  HS02004856HS02004862       208.294       383.995         5.960         0.466         3.037
  HS02004852HS02004856       172.734       314.872         5.060         0.402         2.583
  HS02004802HS02004478       338.360       650.846        10.821         0.974         5.875
  HS02004478WS02006287      1550.033      2894.602        43.015         3.576        22.081
  HS02004817HS02004807       250.072       480.906         8.762         0.826         4.851
  HS02004807HS02004802       338.387       650.965        10.844         0.977         5.890
  YS02001759YS02001757      1499.461      2872.147        35.012         2.652        17.589
  YS02001762YS02001759       721.592      1354.386        17.777         1.355         8.992
  YS02001765YS02001762       724.146      1361.343        17.817         1.358         9.012
  YS02001770YS02001767       738.955      1395.990        17.975         1.363         9.074
  YS02001774YS02001770      1056.783      2025.152        25.801         1.868        12.973
  YS02001779YS02001774      1057.502      2026.828        25.870         1.878        13.019
  YS02001649YS02001757       954.788      1811.295        23.262         1.695        11.632
  YS02001767YS02001765       729.211      1373.502        17.893         1.363         9.048
  YS02006561YS02001783      1639.765      3004.734        43.031         3.283        21.876
  YS02001783YS02001784      1639.750      3004.843        43.024         3.282        21.872
  YS02001784YS02001785      1647.498      3017.513        43.748         3.373        22.324
  YS02001788YS02001790      1647.968      3018.653        43.797         3.380        22.356
  YS02001790YS02001791      1648.896      3020.412        43.883         3.391        22.411
  YS02001791YS02001793      1648.348      3019.626        43.857         3.388        22.396
  YS02001910YS02001907      2435.257      4720.725        58.560         4.260        29.456
  YS02001786YS02001788      1647.699      3018.042        43.767         3.375        22.337
  YS02001915YS02001910      2433.453      4717.129        58.493         4.251        29.416
  YS02001918YS02001915      1531.477      2916.705        36.225         2.855        18.362
  YS02001923YS02001920      1556.339      2972.812        35.283         2.691        17.648
  YS02001926YS02001923      1553.036      2966.764        35.157         2.678        17.576
  YS02001929YS02001926      1549.760      2960.847        35.028         2.665        17.502
  YS02001920YS02001918      1578.574      3009.482        37.274         2.937        18.887
  YS02001629YS02163301      1211.622      2293.668        28.310         2.219        14.151
  YS02001619YS02001622      1134.784      2188.469        26.796         1.941        13.100
  YS02001622YS02001625      1135.836      2190.632        26.804         1.941        13.103
  YS02001625YS02001629       670.899      1260.041        15.788         1.227         7.880
  YS02163301YS02001633      1213.171      2295.572        28.365         2.224        14.182
  YS02163601YS02164001      1243.725      2302.725        29.993         2.346        15.043
  YS02164001YS02001641      1245.469      2305.974        30.009         2.347        15.049
  YS02001641YS02001644      1248.989      2312.516        30.059         2.350        15.072
  YS02001647YS02001649      1015.677      1881.771        25.768         1.942        12.777
  YS02006553YS02006556      1334.125      2414.919        36.023         2.784        18.396
  YS02006556YS02006558      1331.267      2407.491        35.967         2.777        18.364
  YSB6556YSB1171             122.278       222.253         3.162         0.263         1.629
  YS02001907YS02006553      1338.208      2425.195        36.112         2.794        18.448
  YS02006558YS02006561      1639.359      3003.885        43.026         3.282        21.874
  YS02001633YS02163601      1243.569      2302.256        29.960         2.341        15.021
  YS02001644YS02001647      1021.556      1893.704        25.847         1.948        12.816
  YS02001745YS02001748      1884.519      3700.828        44.571         3.111        22.222
  YS02001748YS02001751      1844.687      3624.445        43.608         3.045        21.745
  YS02001751YS02001754      1845.230      3625.745        43.639         3.049        21.765
  YS02001754YS02001757      1847.507      3629.855        43.831         3.074        21.885
  YS02001882YS02001884         4.545         8.311         0.083         0.006         0.040
  YS02001884YS02001887         8.592        15.930         0.156         0.012         0.076
  YS02001890YS02001895       876.929      1622.195        21.289         1.706        10.829
  YS02001895YS02001898       876.990      1622.434        21.285         1.705        10.827
  YS02001898YS02001901       876.823      1622.070        21.282         1.705        10.825
  YS02001901YS02001904       877.099      1622.588        21.312         1.709        10.844
  YS02001904YS02001907       877.579      1623.253        21.377         1.717        10.885
  YS02001887YS02001890      2584.732      4834.666        61.916         4.978        31.413
  YS02001652YS02001649      1832.631      3475.324        44.401         3.430        21.786
  YS02001655YS02001652      1832.726      3475.157        44.416         3.432        21.794
  YS02001658YS02001655      1854.480      3513.830        44.949         3.469        22.047
  YS02001661YS02001658      1855.342      3514.969        44.986         3.472        22.066
  YS02001664YS02001661      1855.327      3514.658        44.994         3.472        22.070
  YSB1154YSB6556             122.137       222.305         3.119         0.257         1.600
  YSB1174YSB1171              84.800       154.786         2.201         0.181         1.127
  YSB1171HS02004479          208.139       378.541         5.481         0.458         2.828
  HS02004881HS02006253       384.253       721.217        10.553         0.807         5.349
  YS02001793JiankangQianchi      1647.344      3018.135        43.812         3.384        22.371
  YS02001757CaochengTiaoxuchi      1285.093      2509.453        28.556         2.040        14.132
  WSF200WS02003060          1023.629      1912.688        28.445         2.384        14.626
  1                          952.190      1745.312        34.910         3.412        19.262
  CC-Pump-1                  546.659      1085.054        11.631         0.829         5.729
  CC-Pump-2                  546.659      1085.054        11.631         0.829         5.729
  JK-Pump-1                    0.000         0.000         0.000         0.000         0.000
  JK-Pump-2                    0.000         0.000         0.000         0.000         0.000
  XR-Pump-1                  267.577       455.079        17.129         1.954        10.216
  XR-Pump-2                  267.577       455.079        17.129         1.954        10.216
  XR-Pump-3                    0.000         0.000         0.000         0.000         0.000
  XR-Pump-4                    0.000         0.000         0.000         0.000         0.000
  3                         1215.230      2375.848        27.854         2.036        13.852
  5                          865.226      1637.384        21.926         1.711        11.022
  6                          792.758      1380.227        45.236         5.060        26.694
  

  Analysis begun on:  Mon Jul  5 19:31:27 2021
  Analysis ended on:  Mon Jul  5 19:31:28 2021
  Total elapsed time: 00:00:01