
  EPA STORM WATER MANAGEMENT MODEL - VERSION 5.1 (Build 5.3.0.dev0)
  --------------------------------------------------------------

  WARNING 04: minimum elevation drop used for Conduit WS02004404WS02004405
  WARNING 03: negative offset ignored for Link YS02001904YS02001907
  
  *********************************************************
  NOTE: The summary statistics displayed in this report are
  based on results found at every computational time step,  
  not just on results from each reporting time step.
  *********************************************************
  
  ****************
  Analysis Options
  ****************
  Flow Units ............... LPS
  Process Models:
    Rainfall/Runoff ........ YES
    RDII ................... NO
    Snowmelt ............... NO
    Groundwater ............ NO
    Flow Routing ........... YES
    Ponding Allowed ........ NO
    Water Quality .......... YES
  Infiltration Method ...... HORTON
  Flow Routing Method ...... DYNWAVE
  Surcharge Method ......... EXTRAN
  Starting Date ............ 08/28/2015 08:00:00
  Ending Date .............. 08/28/2015 15:50:00
  Antecedent Dry Days ...... 8.0
  Report Time Step ......... 00:01:00
  Wet Time Step ............ 00:01:00
  Dry Time Step ............ 00:01:00
  Routing Time Step ........ 5.00 sec
  Variable Time Step ....... YES
  Maximum Trials ........... 8
  Number of Threads ........ 4
  Head Tolerance ........... 0.001500 m
  
  
  **************************        Volume         Depth
  Runoff Quantity Continuity     hectare-m            mm
  **************************     ---------       -------
  Total Precipitation ......         5.556        12.164
  Evaporation Loss .........         0.000         0.000
  Infiltration Loss ........         1.002         2.194
  Surface Runoff ...........         3.688         8.075
  Final Storage ............         0.866         1.897
  Continuity Error (%) .....        -0.019
  
  
  **************************           COD            SS            TN            TP         NH4-N
  Runoff Quality Continuity             kg            kg            kg            kg            kg
  **************************    ----------    ----------    ----------    ----------    ----------
  Initial Buildup ..........     41378.656     70582.865      1804.177       168.684      1032.807
  Surface Buildup ..........        19.275        34.271         2.335         0.213         1.362
  Wet Deposition ...........         0.000         0.000         0.000         0.000         0.000
  Sweeping Removal .........         0.000         0.000         0.000         0.000         0.000
  Infiltration Loss ........        84.023       157.502         1.599         0.111         0.761
  BMP Removal ..............         0.000         0.000         0.000         0.000         0.000
  Surface Runoff ...........      3122.074      5752.154        60.620         4.098        28.771
  Remaining Buildup ........     38190.779     64705.500      1744.271       164.686      1004.628
  Continuity Error (%) .....         0.003         0.003         0.001         0.001         0.001
  
  
  **************************        Volume        Volume
  Flow Routing Continuity        hectare-m      10^6 ltr
  **************************     ---------     ---------
  Dry Weather Inflow .......         0.616         6.165
  Wet Weather Inflow .......         3.687        36.871
  Groundwater Inflow .......         0.000         0.000
  RDII Inflow ..............         0.000         0.000
  External Inflow ..........         0.102         1.024
  External Outflow .........         2.061        20.608
  Flooding Loss ............         1.929        19.291
  Evaporation Loss .........         0.000         0.000
  Exfiltration Loss ........         0.000         0.000
  Initial Stored Volume ....         0.076         0.761
  Final Stored Volume ......         0.608         6.082
  Continuity Error (%) .....        -2.591
  
  
  **************************           COD            SS            TN            TP         NH4-N
  Quality Routing Continuity            kg            kg            kg            kg            kg
  **************************    ----------    ----------    ----------    ----------    ----------
  Dry Weather Inflow .......      1541.201      2465.922       147.955        18.494        92.472
  Wet Weather Inflow .......      3121.367      5750.987        60.605         4.097        28.764
  Groundwater Inflow .......         0.000         0.000         0.000         0.000         0.000
  RDII Inflow ..............         0.000         0.000         0.000         0.000         0.000
  External Inflow ..........       183.418       293.469        17.608         2.201        11.005
  External Outflow .........      2406.828      4118.502       153.994        18.109        93.186
  Flooding Loss ............      1790.822      3287.053        46.112         4.008        24.224
  Exfiltration Loss ........         0.000         0.000         0.000         0.000         0.000
  Mass Reacted .............         0.000         0.000         0.000         0.000         0.000
  Initial Stored Mass ......         0.000         0.000         0.000         0.000         0.000
  Final Stored Mass ........       503.166       855.025        22.766         2.433        13.202
  Continuity Error (%) .....         2.996         2.935         1.457         0.979         1.232
  
  
  *************************
  Highest Continuity Errors
  *************************
  Node HS02004842 (14.53%)
  Node JK-storage (-11.31%)
  Node YS02001884 (9.65%)
  Node YSB1171 (2.74%)
  Node HS02004817 (2.73%)
  
  
  ***************************
  Time-Step Critical Elements
  ***************************
  Link WS02006252WS02006251 (69.09%)
  Link WS02006280WS02006229 (9.58%)
  Link YS02001793JiankangQianchi (3.85%)
  Link WS02004404WS02004405 (3.47%)
  Link WS02006238WS02006235 (3.00%)
  
  
  ********************************
  Highest Flow Instability Indexes
  ********************************
  Link YS02163601YS02164001 (47)
  Link YS02001619YS02001622 (47)
  Link YS02001629YS02163301 (46)
  Link YS02163301YS02001633 (45)
  Link YS02164001YS02001641 (43)
  
  
  *************************
  Routing Time Step Summary
  *************************
  Minimum Time Step           :     0.50 sec
  Average Time Step           :     1.07 sec
  Maximum Time Step           :     5.00 sec
  Percent in Steady State     :    -0.00
  Average Iterations per Step :     4.85
  Percent Not Converging      :    25.46
  
  
  ***************************
  Subcatchment Runoff Summary
  ***************************
  
  ------------------------------------------------------------------------------------------------------------------------------
                            Total      Total      Total      Total     Imperv       Perv      Total       Total     Peak  Runoff
                           Precip      Runon       Evap      Infil     Runoff     Runoff     Runoff      Runoff   Runoff   Coeff
  Subcatchment                 mm         mm         mm         mm         mm         mm         mm    10^6 ltr      LPS
  ------------------------------------------------------------------------------------------------------------------------------
  sub0                      12.16       0.00       0.00       0.65      11.27       0.20      11.47        0.01     1.99   0.943
  sub1                      12.16       0.00       0.00       1.12      10.73       0.22      10.95        0.07    14.96   0.900
  sub2                      12.16       0.00       0.00       4.23       7.58       0.27       7.85        0.07    15.08   0.646
  sub3                      12.16       0.00       0.00       4.29       7.54       0.21       7.75        0.17    34.61   0.637
  sub4                      12.16       0.00       0.00       1.19      10.57       0.14      10.71        0.22    42.34   0.881
  sub5                      12.16       0.00       0.00       0.69      11.21       0.16      11.38        0.13    26.18   0.935
  sub7                      12.16       0.00       0.00       0.88      11.01       0.22      11.22        0.04     7.95   0.923
  sub8                      12.16       0.00       0.00       0.89      11.00       0.21      11.20        0.07    14.89   0.921
  sub9                      12.16       0.00       0.00       0.89      10.99       0.21      11.20        0.05    11.18   0.921
  sub10                     12.16       0.00       0.00       0.79      11.10       0.18      11.28        0.12    25.49   0.928
  sub11                     12.16       0.00       0.00       0.78      11.12       0.19      11.31        0.13    27.35   0.930
  sub12                     12.16       0.00       0.00       1.27      10.53       0.31      10.85        0.09    20.52   0.892
  sub14                     12.16       0.00       0.00       0.89      10.99       0.20      11.20        0.11    22.08   0.920
  sub15                     12.16       0.00       0.00       3.28       8.45       0.37       8.82        0.15    32.49   0.725
  sub16                     12.16       0.00       0.00       3.51       8.11       0.50       8.61        0.09    20.36   0.708
  sub17                     12.16       0.00       0.00       3.41       8.23       0.48       8.71        0.07    16.72   0.716
  sub22                     12.16       0.00       0.00       4.80       6.89       0.43       7.32        0.46   102.62   0.602
  sub23                     12.16       0.00       0.00       4.05       7.62       0.45       8.07        0.38    85.35   0.663
  sub60                     12.16       0.00       0.00       1.42       8.82       0.04       8.86        2.69   336.84   0.729
  sub61                     12.16       0.00       0.00       2.01       8.94       0.06       9.00        2.78   399.45   0.740
  sub62                     12.16       0.00       0.00       0.92       9.73       0.05       9.78        3.01   415.79   0.804
  sub63                     12.16       0.00       0.00       3.46       7.82       0.06       7.88        2.39   361.21   0.648
  sub64                     12.16       0.00       0.00       1.78       8.47       0.04       8.51        2.59   320.97   0.699
  sub65                     12.16       0.00       0.00       1.54       8.61       0.04       8.65        2.66   326.54   0.711
  sub66                     12.16       0.00       0.00       3.49       7.26       0.04       7.30        2.24   290.53   0.600
  sub67                     12.16       0.00       0.00       0.91      10.24       0.07      10.31        3.18   494.23   0.848
  sub68                     12.16       0.00       0.00       1.64       9.40       0.06       9.46        2.91   432.52   0.778
  sub69                     12.16       0.00       0.00       1.73       9.72       0.09       9.82        2.29   383.95   0.807
  sub70                     12.16      10.02       0.00       6.98      13.09       0.56      13.65        3.12   394.93   0.615
  sub71                     12.16       0.00       0.00       0.93       9.48       0.05       9.53        2.25   296.34   0.783
  sub72                     12.16       0.00       0.00       0.83       7.62       0.02       7.64        1.56   151.13   0.628
  1                         12.16      13.29       0.00       1.37      14.64       3.94      18.57        4.36   399.24   0.730
  2                         12.16       0.00       0.00       3.02       2.89       1.65       4.55        1.82   245.52   0.374
  
  
  ****************************
  Subcatchment Washoff Summary
  ****************************
  
  ------------------------------------------------------------------------------------------
                                 COD            SS            TN            TP         NH4-N
  Subcatchment                    kg            kg            kg            kg            kg
  ------------------------------------------------------------------------------------------
  sub0                         2.176         4.147         0.037         0.003         0.018
  sub1                         9.268        18.138         0.173         0.012         0.083
  sub2                         5.563        10.570         0.119         0.008         0.054
  sub3                        13.747        25.918         0.288         0.019         0.132
  sub4                        21.530        42.606         0.429         0.026         0.205
  sub5                        21.300        41.103         0.378         0.029         0.183
  sub7                         4.748         9.424         0.090         0.006         0.043
  sub8                         7.142        14.500         0.143         0.008         0.069
  sub9                         6.100        12.212         0.118         0.007         0.057
  sub10                       17.532        34.266         0.321         0.023         0.155
  sub11                       17.086        33.770         0.320         0.022         0.154
  sub12                       14.392        27.890         0.260         0.019         0.125
  sub14                       13.021        25.823         0.247         0.016         0.119
  sub15                       16.182        30.744         0.313         0.023         0.146
  sub16                       10.318        19.555         0.197         0.015         0.092
  sub17                        9.471        17.789         0.175         0.014         0.082
  sub22                       48.821        90.813         0.932         0.070         0.434
  sub23                       29.138        56.181         0.627         0.041         0.287
  sub60                      203.703       376.194         4.083         0.248         1.956
  sub61                      251.300       461.579         4.699         0.320         2.261
  sub62                      262.762       491.326         5.157         0.324         2.474
  sub63                      185.047       334.594         3.739         0.261         1.731
  sub64                      253.867       452.095         4.687         0.339         2.235
  sub65                      260.106       465.192         4.834         0.344         2.309
  sub66                      146.558       263.078         3.037         0.197         1.417
  sub67                      388.205       718.566         6.963         0.510         3.363
  sub68                      276.714       513.393         5.318         0.356         2.539
  sub69                      247.676       464.012         4.658         0.325         2.225
  sub70                      413.256       778.342         8.287         0.572         3.877
  sub71                      173.740       327.842         3.597         0.206         1.720
  sub72                      136.329       239.316         2.558         0.174         1.230
  1                          280.724       531.718         5.751         0.398         2.660
  2                           35.485        61.812         1.030         0.062         0.437
  ------------------------------------------------------------------------------------------
  System                    3783.006      6994.507        73.566         4.996        34.873
  
  
  ******************
  Node Depth Summary
  ******************
  
  ---------------------------------------------------------------------------------
                                 Average  Maximum  Maximum  Time of Max    Reported
                                   Depth    Depth      HGL   Occurrence   Max Depth
  Node                 Type       Meters   Meters   Meters  days hr:min      Meters
  ---------------------------------------------------------------------------------
  WS02001211           JUNCTION     0.78     0.83     5.67     0  03:10        0.83
  WS02001212           JUNCTION     0.49     0.55     5.62     0  03:09        0.55
  WS02001213           JUNCTION     0.73     0.82     5.59     0  03:08        0.82
  WS02003069           JUNCTION     0.53     0.68     5.26     0  03:07        0.68
  WS02003072           JUNCTION     0.59     0.73     5.10     0  03:08        0.73
  WS02003073           JUNCTION     0.36     0.45     4.52     0  03:08        0.45
  WS02003060           JUNCTION     0.47     0.60     5.53     0  03:07        0.60
  WS02003066           JUNCTION     0.26     0.36     5.92     0  03:06        0.36
  WS02003059           JUNCTION     0.78     0.88     5.56     0  03:08        0.88
  WS02003067           JUNCTION     0.62     0.79     6.11     0  03:05        0.79
  WS02004401           JUNCTION     0.75     1.13     7.13     0  03:03        1.13
  WS02004402           JUNCTION     0.78     1.14     7.10     0  03:03        1.13
  WS02004403           JUNCTION     0.79     1.12     7.05     0  03:04        1.11
  WS02004404           JUNCTION     0.87     1.17     7.02     0  03:04        1.17
  WS02004406           JUNCTION     0.87     1.12     6.95     0  03:03        1.11
  WS02004409           JUNCTION     0.56     0.86     6.63     0  03:05        0.86
  WS02004410           JUNCTION     0.58     0.86     6.58     0  03:05        0.86
  WS02004411           JUNCTION     0.59     0.86     6.54     0  03:05        0.86
  WS02004412           JUNCTION     0.61     0.84     6.48     0  03:05        0.84
  WS02004413           JUNCTION     0.76     0.98     6.45     0  03:06        0.98
  WS02004405           JUNCTION     0.86     1.15     7.00     0  03:04        1.15
  WS02006109           JUNCTION     0.84     1.30     7.92     0  03:02        1.29
  WS02006110           JUNCTION     0.81     1.14     7.73     0  03:04        1.14
  WS02006111           JUNCTION     0.25     0.65     7.36     0  03:03        0.65
  WS02006112           JUNCTION     0.93     1.42     7.30     0  03:03        1.40
  WS02006113           JUNCTION     0.38     0.64     7.54     0  03:04        0.64
  WS02006115           JUNCTION     0.64     1.09     7.23     0  03:03        1.08
  WS02006116           JUNCTION     0.73     1.14     7.18     0  03:03        1.14
  WS02006230           JUNCTION     0.86     1.52     8.26     0  03:02        1.51
  WS02006231           JUNCTION     0.60     1.22     8.35     0  03:01        1.20
  WS02006232           JUNCTION     0.74     1.38     8.42     0  03:01        1.36
  WS02006234           JUNCTION     0.69     1.35     8.50     0  03:01        1.30
  WS02006235           JUNCTION     0.73     1.39     8.56     0  03:01        1.35
  WS02006238           JUNCTION     0.76     1.42     8.56     0  03:01        1.38
  WS02006240           JUNCTION     0.66     1.31     8.60     0  03:01        1.27
  WS02006242           JUNCTION     0.72     1.35     8.62     0  03:01        1.32
  WS02006243           JUNCTION     0.60     1.22     8.64     0  03:01        1.20
  WS02006245           JUNCTION     0.58     1.18     8.66     0  03:01        1.16
  WS02006247           JUNCTION     0.59     1.18     8.68     0  03:01        1.16
  WS02006248           JUNCTION     0.53     1.10     8.69     0  03:01        1.09
  WS02006249           JUNCTION     0.55     1.09     8.69     0  03:01        1.09
  WS02006239           JUNCTION     0.72     1.37     8.58     0  03:01        1.33
  WS02006251           JUNCTION     0.53     1.33     9.00     0  05:29        1.14
  WS02006252           JUNCTION     0.34     0.88     9.12     0  05:29        0.70
  WS02006253           JUNCTION     0.55     1.39     9.04     0  05:29        1.17
  WS02006256           JUNCTION     1.71     2.35     9.28     0  00:12        2.35
  WS02004138           JUNCTION     0.19     0.20     7.45     0  00:00        0.19
  WS02004139           JUNCTION     0.72     0.77     5.68     0  03:10        0.77
  WS02004407           JUNCTION     0.25     0.37     6.68     0  03:04        0.37
  WS02006228           JUNCTION     0.85     1.44     8.09     0  03:02        1.43
  WS02006229           JUNCTION     0.84     1.49     8.18     0  03:02        1.48
  WS02006280           JUNCTION     0.07     0.20     8.47     0  03:02        0.20
  WS02006284           JUNCTION     0.37     0.56     8.96     0  03:02        0.56
  WS02006287           JUNCTION     0.10     0.30     9.25     0  03:01        0.30
  WSF200               JUNCTION     0.25     0.40     5.63     0  03:06        0.40
  HS02004901           JUNCTION     0.13     0.29    10.12     0  03:01        0.29
  HS02004881           JUNCTION     0.01     0.04     9.07     0  03:01        0.04
  HS02004876           JUNCTION     0.04     0.12     9.15     0  03:01        0.12
  HS02004870           JUNCTION     0.02     0.07     9.35     0  03:01        0.07
  HS02004862           JUNCTION     0.02     0.08     9.46     0  03:01        0.08
  HS02004856           JUNCTION     0.08     0.13     9.55     0  03:01        0.13
  HS02004852           JUNCTION     0.01     0.05     9.56     0  03:01        0.05
  HS02004848           JUNCTION     0.01     0.05     9.65     0  03:01        0.05
  HS02004842           JUNCTION     0.34     0.38     9.65     0  03:01        0.38
  HS02004837           JUNCTION     0.03     0.07     9.65     0  03:01        0.07
  HS02004830           JUNCTION     0.04     0.08     9.55     0  03:01        0.08
  HS02004824           JUNCTION     0.02     0.06     9.47     0  03:01        0.06
  HS02004817           JUNCTION     0.44     0.61     9.45     0  03:01        0.61
  HS02004807           JUNCTION     0.13     0.28     9.45     0  03:01        0.28
  HS02004802           JUNCTION     0.16     0.31     9.44     0  03:01        0.31
  HS02004799           JUNCTION     0.12     0.35     9.56     0  03:01        0.35
  HS02004792           JUNCTION     0.03     0.15     9.67     0  03:01        0.15
  HS02004788           JUNCTION     0.03     0.11    10.01     0  03:01        0.11
  HS02004785           JUNCTION     0.05     0.18    10.09     0  03:01        0.18
  HS02004777           JUNCTION     0.15     0.31    10.11     0  03:01        0.31
  HS02004770           JUNCTION     0.12     0.29    10.12     0  03:01        0.29
  HS02004480           JUNCTION     0.08     0.28     9.52     0  03:01        0.28
  HS02004479           JUNCTION     0.12     0.32     9.52     0  03:01        0.32
  HS02004478           JUNCTION     0.06     0.20     9.42     0  03:01        0.20
  YS02001745           JUNCTION     0.73     0.92     8.44     0  03:00        0.91
  YS02001748           JUNCTION     1.14     1.64     8.72     0  02:27        1.35
  YS02001751           JUNCTION     1.32     1.72     8.60     0  02:27        1.55
  YS02001754           JUNCTION     1.58     1.84     8.44     0  02:59        1.82
  YS02001762           JUNCTION     1.78     2.04     8.44     0  02:59        2.02
  YS02001765           JUNCTION     1.73     1.99     8.44     0  02:59        1.97
  YS02001767           JUNCTION     1.70     1.95     8.43     0  02:59        1.92
  YS02001770           JUNCTION     1.69     1.93     8.42     0  02:27        1.91
  YS02001774           JUNCTION     1.76     1.99     8.41     0  02:27        1.97
  YS02001779           JUNCTION     1.51     1.68     8.37     0  02:27        1.68
  YS02001882           JUNCTION     0.52     1.62     8.34     0  03:00        1.61
  YS02001884           JUNCTION     0.61     1.72     8.34     0  03:00        1.71
  YS02001759           JUNCTION     1.82     2.08     8.44     0  02:59        2.06
  YS02001887           JUNCTION     0.69     1.80     8.33     0  03:00        1.79
  YS02001890           JUNCTION     0.72     1.81     8.32     0  02:56        1.81
  YS02001898           JUNCTION     0.49     1.56     8.29     0  02:59        1.55
  YS02001901           JUNCTION     0.61     1.67     8.28     0  02:56        1.67
  YS02001904           JUNCTION     0.59     1.64     8.27     0  02:59        1.63
  YS02001907           JUNCTION     0.92     1.96     8.25     0  02:53        1.96
  YS02001910           JUNCTION     0.71     1.78     8.28     0  02:55        1.76
  YS02001915           JUNCTION     0.50     1.59     8.30     0  02:55        1.57
  YS02001918           JUNCTION     0.25     1.25     8.31     0  02:55        1.24
  YS02001619           JUNCTION     1.29     1.55     8.47     0  02:26        1.47
  YS02001629           JUNCTION     1.64     1.85     8.40     0  02:26        1.84
  YS02001641           JUNCTION     1.74     1.94     8.37     0  03:28        1.93
  YS02001644           JUNCTION     1.75     1.92     8.35     0  02:35        1.92
  YS02001652           JUNCTION     1.59     2.16     8.76     0  02:38        1.93
  YS02001655           JUNCTION     1.35     2.20     9.05     0  02:38        1.82
  YS02001920           JUNCTION     0.35     1.32     8.33     0  02:55        1.31
  YS02001923           JUNCTION     0.19     1.07     8.33     0  02:55        1.06
  YS02001926           JUNCTION     0.26     0.90     8.35     0  02:54        0.90
  YS02001929           JUNCTION     0.14     0.65     8.34     0  02:54        0.64
  YS02001658           JUNCTION     1.08     2.11     9.25     0  02:38        1.67
  YS02001661           JUNCTION     0.84     2.46     9.86     0  02:38        1.57
  YS02001664           JUNCTION     0.37     0.57     8.50     0  02:38        0.57
  YS02001622           JUNCTION     1.31     1.52     8.43     0  02:27        1.49
  YS02001633           JUNCTION     1.74     1.95     8.40     0  02:59        1.94
  YS02001649           JUNCTION     1.79     2.05     8.44     0  02:36        2.05
  YS02001757           JUNCTION     1.91     2.18     8.44     0  02:58        2.17
  YS02001895           JUNCTION     0.48     1.57     8.31     0  03:00        1.56
  YS02001625           JUNCTION     1.60     1.78     8.38     0  02:26        1.78
  YS02163301           JUNCTION     1.67     1.88     8.40     0  05:52        1.88
  YS02163601           JUNCTION     1.79     1.99     8.39     0  02:35        1.98
  YS02164001           JUNCTION     1.72     1.92     8.38     0  05:52        1.91
  YS02001647           JUNCTION     1.58     1.80     8.41     0  02:40        1.79
  YSB1154              JUNCTION     0.26     0.47     9.52     0  03:01        0.47
  YSB6556              JUNCTION     0.15     0.35     9.52     0  03:01        0.35
  YSB1174              JUNCTION     0.21     0.41     9.52     0  03:01        0.41
  YSB1171              JUNCTION     0.41     0.62     9.52     0  03:01        0.62
  YS02006553           JUNCTION     0.92     2.16     8.44     0  02:59        1.96
  YS02006561           JUNCTION     0.28     1.77     8.43     0  02:59        1.07
  YS02006556           JUNCTION     0.89     2.36     8.67     0  02:59        1.92
  YS02006558           JUNCTION     0.93     2.48     8.75     0  02:59        1.96
  YS02001783           JUNCTION     0.49     2.28     8.43     0  02:59        1.46
  YS02001784           JUNCTION     0.51     2.29     8.36     0  02:59        1.41
  YS02001786           JUNCTION     0.44     2.23     8.26     0  02:59        1.25
  YS02001788           JUNCTION     0.37     2.28     8.26     0  02:59        1.65
  YS02001790           JUNCTION     0.48     1.96     7.60     0  02:58        1.33
  YS02001791           JUNCTION     0.42     2.72     8.19     0  04:36        1.27
  YS02001793           JUNCTION     0.55     2.63     7.47     0  04:35        1.80
  WSC                  OUTFALL      0.36     0.45     1.12     0  03:09        0.45
  JK-storage           STORAGE      2.55     5.80     6.60     0  02:59        5.80
  CC-storage           STORAGE      1.17     1.40     8.40     0  03:03        1.40
  XR-storage           STORAGE      6.54     7.72     5.72     0  02:59        7.72
  
  
  *******************
  Node Inflow Summary
  *******************
  
  -------------------------------------------------------------------------------------------------
                                  Maximum  Maximum                  Lateral       Total        Flow
                                  Lateral    Total  Time of Max      Inflow      Inflow     Balance
                                   Inflow   Inflow   Occurrence      Volume      Volume       Error
  Node                 Type           LPS      LPS  days hr:min    10^6 ltr    10^6 ltr     Percent
  -------------------------------------------------------------------------------------------------
  WS02001211           JUNCTION      7.35   389.38     0  03:13       0.207        10.2       0.398
  WS02001212           JUNCTION      0.00   391.17     0  03:19           0        10.2       0.242
  WS02001213           JUNCTION      0.00   392.91     0  03:19           0        10.1       0.283
  WS02003069           JUNCTION      0.32  1214.71     0  03:07     0.00902        20.7       0.173
  WS02003072           JUNCTION      0.00  1214.57     0  03:08           0        20.6       0.207
  WS02003073           JUNCTION      1.82  1216.52     0  03:08      0.0514        20.7       0.241
  WS02003060           JUNCTION     16.53  1214.42     0  03:07       0.466        20.7       0.162
  WS02003066           JUNCTION      0.00   821.98     0  03:06           0        10.2       0.045
  WS02003059           JUNCTION      0.00   395.26     0  03:18           0        10.1       0.405
  WS02003067           JUNCTION      0.00   821.64     0  03:06           0        10.2       0.094
  WS02004401           JUNCTION      0.00   827.55     0  03:04           0        10.4       0.200
  WS02004402           JUNCTION      0.00   828.35     0  03:04           0        10.4       0.189
  WS02004403           JUNCTION      0.00   827.90     0  03:04           0        10.4       0.173
  WS02004404           JUNCTION      0.16   828.33     0  03:04     0.00457        10.4       0.130
  WS02004406           JUNCTION      0.00   827.81     0  03:04           0        10.3       0.319
  WS02004409           JUNCTION      0.00   827.22     0  03:04           0        10.3       0.161
  WS02004410           JUNCTION      0.00   823.71     0  03:05           0        10.3       0.183
  WS02004411           JUNCTION      0.00   821.99     0  03:05           0        10.3       0.189
  WS02004412           JUNCTION      0.00   821.50     0  03:05           0        10.3       0.204
  WS02004413           JUNCTION      0.00   821.58     0  03:06           0        10.2       0.301
  WS02004405           JUNCTION      0.04   828.77     0  03:04     0.00107        10.4       0.196
  WS02006109           JUNCTION      1.23   828.46     0  03:02      0.0347        10.5       0.174
  WS02006110           JUNCTION      0.00   828.20     0  03:02           0        10.5       0.185
  WS02006111           JUNCTION      0.00   815.67     0  03:02           0        10.4       0.038
  WS02006112           JUNCTION     16.72   827.25     0  03:04      0.0747        10.5       0.271
  WS02006113           JUNCTION      0.00   828.23     0  03:02           0        10.4       0.083
  WS02006115           JUNCTION      0.00   827.03     0  03:04           0        10.5       0.186
  WS02006116           JUNCTION      0.00   827.28     0  03:04           0        10.4       0.168
  WS02006230           JUNCTION     10.28   533.82     0  06:40        0.29        8.31       0.162
  WS02006231           JUNCTION      0.00   522.97     0  06:41           0        8.02       0.090
  WS02006232           JUNCTION      0.00   523.32     0  06:40           0        8.04       0.194
  WS02006234           JUNCTION      0.00   524.14     0  06:40           0        8.05       0.084
  WS02006235           JUNCTION      0.00   524.73     0  06:40           0         8.1       0.114
  WS02006238           JUNCTION      0.00   418.64     0  07:30           0        4.63       0.168
  WS02006240           JUNCTION      0.00   416.97     0  05:50           0        4.62       0.234
  WS02006242           JUNCTION      0.00   416.70     0  05:50           0        4.61       0.285
  WS02006243           JUNCTION      0.00   416.87     0  05:50           0        4.61       0.229
  WS02006245           JUNCTION      0.00   416.98     0  05:50           0        4.62       0.188
  WS02006247           JUNCTION      0.00   417.10     0  05:50           0        4.62       0.144
  WS02006248           JUNCTION      0.00   417.83     0  05:50           0        4.63       0.098
  WS02006249           JUNCTION      0.00   447.59     0  03:10           0        5.03       0.183
  WS02006239           JUNCTION      0.00   417.94     0  05:50           0        4.62       0.228
  WS02006251           JUNCTION      0.08   447.42     0  03:10     0.00217        5.07       0.170
  WS02006252           JUNCTION      0.00   400.00     0  03:10           0        4.62       0.009
  WS02006253           JUNCTION      1.99    86.07     0  03:01     0.00928       0.455       0.791
  WS02006256           JUNCTION      0.00   983.00     0  02:30           0          10       0.005
  WS02004138           JUNCTION      0.00   380.00     0  00:00           0          10       0.067
  WS02004139           JUNCTION      0.32   394.45     0  00:00     0.00905          10       0.456
  WS02004407           JUNCTION      0.00   827.62     0  03:04           0        10.3       0.070
  WS02006228           JUNCTION      0.00   827.02     0  03:02           0        10.5       0.124
  WS02006229           JUNCTION      0.00   828.89     0  03:01           0        10.5       0.110
  WS02006280           JUNCTION      0.00   413.59     0  03:02           0        2.17       0.008
  WS02006284           JUNCTION      0.10   413.54     0  03:02      0.0027        2.17       0.041
  WS02006287           JUNCTION      0.00   413.19     0  03:01           0        2.17       0.033
  WSF200               JUNCTION      0.00   822.09     0  03:06           0        10.2       0.043
  HS02004901           JUNCTION     20.36    20.36     0  03:01      0.0902      0.0904       1.990
  HS02004881           JUNCTION      7.95    84.18     0  03:01      0.0378        0.41       0.106
  HS02004876           JUNCTION     14.96    76.75     0  03:01      0.0728       0.373       0.148
  HS02004870           JUNCTION     14.89    62.15     0  03:01      0.0716         0.3       0.037
  HS02004862           JUNCTION     15.28    47.68     0  03:01      0.0788       0.229       0.077
  HS02004856           JUNCTION     11.18    32.72     0  03:01      0.0539       0.152       0.960
  HS02004852           JUNCTION      0.00    21.94     0  03:01           0      0.0979       0.059
  HS02004848           JUNCTION     34.61    34.61     0  03:01       0.174       0.174       0.028
  HS02004842           JUNCTION      0.00    12.41     0  03:01           0      0.0895      16.999
  HS02004837           JUNCTION     31.84    43.95     0  03:01       0.303        0.38       0.214
  HS02004830           JUNCTION      0.15    43.85     0  03:01     0.00423        0.37       0.335
  HS02004824           JUNCTION     42.39    85.90     0  03:01       0.225       0.594       0.091
  HS02004817           JUNCTION      0.60    86.28     0  03:01      0.0169        0.61       2.809
  HS02004807           JUNCTION     27.35   112.31     0  03:01       0.131       0.726       0.605
  HS02004802           JUNCTION      0.00   111.36     0  03:01           0       0.723       0.547
  HS02004799           JUNCTION     22.08   258.91     0  03:01       0.107        1.24       0.223
  HS02004792           JUNCTION    102.90   238.00     0  03:01        0.47        1.14       0.036
  HS02004788           JUNCTION     34.16   135.93     0  03:01       0.199       0.669       0.058
  HS02004785           JUNCTION      0.15   103.52     0  03:01     0.00423       0.471       0.106
  HS02004777           JUNCTION      0.03   104.16     0  03:01    0.000846       0.472       1.115
  HS02004770           JUNCTION     85.35   105.11     0  03:01       0.385       0.473       0.659
  HS02004480           JUNCTION      0.00   302.42     0  03:01           0        1.46       0.076
  HS02004479           JUNCTION      0.00    44.85     0  03:02           0       0.232       0.317
  HS02004478           JUNCTION      0.00   413.06     0  03:01           0        2.17       0.014
  YS02001745           JUNCTION    336.84   418.24     0  02:26        2.69         2.7       0.364
  YS02001748           JUNCTION      0.04   585.25     0  02:26     0.00127        2.69       0.783
  YS02001751           JUNCTION      0.01   341.85     0  03:01     0.00031        2.66       0.900
  YS02001754           JUNCTION      0.26   341.95     0  03:01     0.00733        2.64       0.952
  YS02001762           JUNCTION      0.00   290.96     0  02:38           0        1.81       1.173
  YS02001765           JUNCTION      0.00   291.30     0  02:38           0        1.81       1.355
  YS02001767           JUNCTION      0.54   291.58     0  02:38      0.0151        1.84       1.968
  YS02001770           JUNCTION    415.94   563.69     0  03:01        3.01        3.22       0.975
  YS02001774           JUNCTION      0.00   564.21     0  03:01           0        1.59       1.586
  YS02001779           JUNCTION      0.01   564.04     0  03:01    0.000141        1.55       0.990
  YS02001882           JUNCTION      0.00    11.07     0  04:12           0      0.0276       9.087
  YS02001884           JUNCTION      0.00    14.29     0  02:33           0      0.0648      10.676
  YS02001759           JUNCTION    399.49   573.06     0  02:39        2.78        4.35       0.526
  YS02001887           JUNCTION    494.68   494.68     0  03:01        3.19        3.22       0.267
  YS02001890           JUNCTION      0.00   494.91     0  03:01           0        3.18       0.294
  YS02001898           JUNCTION      0.00   494.75     0  03:01           0        3.16       0.104
  YS02001901           JUNCTION      0.00   494.96     0  03:01           0        3.16       0.217
  YS02001904           JUNCTION      0.00   495.00     0  03:01           0        3.16       0.202
  YS02001907           JUNCTION      0.00   961.95     0  03:00           0        7.02       0.345
  YS02001910           JUNCTION      0.00   480.51     0  02:55           0        3.87       0.309
  YS02001915           JUNCTION    296.36   480.44     0  02:55        2.25        3.88       0.160
  YS02001918           JUNCTION      0.00   210.43     0  03:30           0        1.63       0.119
  YS02001619           JUNCTION    290.53   290.53     0  03:01        2.24        2.24       0.541
  YS02001629           JUNCTION      0.00   188.22     0  02:35           0        1.69       1.720
  YS02001641           JUNCTION      0.00   397.87     0  02:35           0        4.25       0.497
  YS02001644           JUNCTION    321.01  1355.38     0  03:01        2.59        9.67       0.268
  YS02001652           JUNCTION      0.00   380.31     0  03:01           0        2.35       0.974
  YS02001655           JUNCTION      0.15   380.24     0  03:01     0.00434        2.38       1.069
  YS02001920           JUNCTION      2.87   207.45     0  02:55      0.0809        1.63       0.185
  YS02001923           JUNCTION      0.04   206.12     0  02:55     0.00106        1.55       0.049
  YS02001926           JUNCTION      0.05   175.73     0  02:55     0.00147        1.56       0.218
  YS02001929           JUNCTION    151.13   151.13     0  03:01        1.56        1.56       0.036
  YS02001658           JUNCTION      0.00   589.64     0  02:23           0         2.4       0.924
  YS02001661           JUNCTION      0.00   646.43     0  02:37           0        2.89      -0.475
  YS02001664           JUNCTION    361.21   361.21     0  03:01        2.38        2.88       0.179
  YS02001622           JUNCTION      0.00   290.76     0  03:01           0        2.22       1.448
  YS02001633           JUNCTION    326.74   396.42     0  02:35        2.66        4.31       0.749
  YS02001649           JUNCTION      0.00   832.58     0  02:35           0        5.78       0.643
  YS02001757           JUNCTION      0.00  1580.08     0  02:35           0        9.58       0.967
  YS02001895           JUNCTION      0.00   494.95     0  03:01           0        3.17       0.166
  YS02001625           JUNCTION      0.00   290.62     0  03:01           0        2.19       1.807
  YS02163301           JUNCTION      0.00   206.71     0  02:27           0        1.67       1.465
  YS02163601           JUNCTION      0.11   396.63     0  02:35      0.0031        4.27       0.706
  YS02164001           JUNCTION      0.00   397.12     0  02:35           0        4.25       0.469
  YS02001647           JUNCTION      0.00   654.06     0  03:01           0        4.91       0.584
  YSB1154              JUNCTION     26.18    26.18     0  03:01       0.129        0.13       1.130
  YSB6556              JUNCTION      0.00    25.82     0  03:01           0        0.13       0.969
  YSB1174              JUNCTION     20.52    20.52     0  03:01      0.0948      0.0953       1.368
  YSB1171              JUNCTION      0.00    45.30     0  03:01           0       0.231       2.820
  YS02006553           JUNCTION      0.00   745.87     0  02:54           0         6.7       0.232
  YS02006561           JUNCTION      0.00  1142.10     0  02:58           0        9.58       0.003
  YS02006556           JUNCTION      0.00   746.31     0  02:54           0         6.7       0.170
  YS02006558           JUNCTION    433.40  1142.36     0  02:58        2.93        9.61       0.059
  YS02001783           JUNCTION      0.00  1142.08     0  02:58           0        9.58       0.025
  YS02001784           JUNCTION      1.06  1143.28     0  02:58      0.0299         9.6       0.038
  YS02001786           JUNCTION      0.06  1143.16     0  02:58     0.00159         9.6       0.038
  YS02001788           JUNCTION      0.07  1144.40     0  02:58       0.002         9.6       0.019
  YS02001790           JUNCTION      0.15  1157.87     0  02:58     0.00437         9.6       0.023
  YS02001791           JUNCTION      0.00  1266.18     0  02:55           0         9.6       0.007
  YS02001793           JUNCTION      0.00  1208.96     0  02:57           0        9.63      -0.003
  WSC                  OUTFALL       0.00  1217.20     0  03:09           0        20.6       0.000
  JK-storage           STORAGE       0.00  1184.64     0  02:54           0        9.78     -10.159
  CC-storage           STORAGE       0.00  1579.67     0  02:35           0        8.05       0.764
  XR-storage           STORAGE     844.76   844.76     0  03:01        11.8        12.4      -0.003
  
  
  **********************
  Node Surcharge Summary
  **********************
  
  Surcharging occurs when water rises above the top of the highest conduit.
  ---------------------------------------------------------------------
                                               Max. Height   Min. Depth
                                   Hours       Above Crown    Below Rim
  Node                 Type      Surcharged         Meters       Meters
  ---------------------------------------------------------------------
  WS02004401           JUNCTION        0.33          0.133        1.527
  WS02004402           JUNCTION        0.40          0.135        1.605
  WS02004403           JUNCTION        0.41          0.120        1.910
  WS02004404           JUNCTION        0.94          0.172        2.608
  WS02004406           JUNCTION        0.75          0.115        2.335
  WS02004405           JUNCTION        0.85          0.154        2.646
  WS02006109           JUNCTION        4.17          0.483        1.337
  WS02006110           JUNCTION        2.42          0.232        1.618
  WS02006112           JUNCTION        2.89          0.417        1.263
  WS02006115           JUNCTION        0.16          0.078        2.172
  WS02006116           JUNCTION        0.20          0.084        2.206
  WS02006230           JUNCTION        1.84          0.440        1.130
  WS02006231           JUNCTION        2.42          0.512        1.018
  WS02006232           JUNCTION        4.16          0.681        0.799
  WS02006234           JUNCTION        3.36          0.627        0.613
  WS02006235           JUNCTION        3.70          0.684        0.606
  WS02006238           JUNCTION        3.82          0.699        0.731
  WS02006240           JUNCTION        3.10          0.598        0.792
  WS02006242           JUNCTION        3.24          0.622        0.198
  WS02006243           JUNCTION        2.47          0.513        0.257
  WS02006245           JUNCTION        2.25          0.467        0.383
  WS02006247           JUNCTION        2.28          0.468        0.292
  WS02006248           JUNCTION        1.94          0.378        0.002
  WS02006249           JUNCTION        2.01          0.390        0.000
  WS02006239           JUNCTION        3.29          0.630        0.660
  WS02006251           JUNCTION        1.33          0.296        0.884
  WS02006252           JUNCTION        2.19          0.478        0.622
  WS02006253           JUNCTION        1.36          0.355        2.125
  WS02006256           JUNCTION        6.82          2.050        0.000
  WS02006228           JUNCTION        4.13          0.607        1.593
  YS02001748           JUNCTION        5.31          0.564        0.626
  YS02001751           JUNCTION        5.48          0.723        0.477
  YS02001754           JUNCTION        5.69          0.785        0.365
  YS02001762           JUNCTION        5.87          1.042        0.108
  YS02001765           JUNCTION        5.84          0.991        0.109
  YS02001767           JUNCTION        5.81          0.946        0.084
  YS02001770           JUNCTION        5.80          0.896        0.024
  YS02001774           JUNCTION        5.86          0.990        0.060
  YS02001779           JUNCTION        5.67          0.680        0.000
  YS02001882           JUNCTION        0.84          0.621        0.209
  YS02001884           JUNCTION        0.87          0.663        0.207
  YS02001759           JUNCTION        5.89          1.078        0.132
  YS02001887           JUNCTION        0.96          0.746        0.204
  YS02001890           JUNCTION        1.00          0.760        0.000
  YS02001898           JUNCTION        0.78          0.528        0.212
  YS02001901           JUNCTION        0.92          0.674        0.196
  YS02001904           JUNCTION        0.89          0.636        0.214
  YS02001907           JUNCTION        1.77          0.950        0.000
  YS02001910           JUNCTION        1.05          0.775        0.325
  YS02001915           JUNCTION        0.81          0.586        0.414
  YS02001918           JUNCTION        0.57          0.248        0.562
  YS02001619           JUNCTION        5.47          0.546        0.064
  YS02001629           JUNCTION        5.49          0.470        0.000
  YS02001641           JUNCTION        5.85          0.936        0.164
  YS02001644           JUNCTION        5.85          0.920        0.000
  YS02001652           JUNCTION        5.73          1.130        0.000
  YS02001655           JUNCTION        5.50          1.200        0.000
  YS02001920           JUNCTION        0.61          0.320        0.820
  YS02001658           JUNCTION        5.34          1.107        0.193
  YS02001661           JUNCTION        0.25          1.390        0.000
  YS02001622           JUNCTION        5.52          0.522        0.098
  YS02001633           JUNCTION        5.83          0.926        0.134
  YS02001649           JUNCTION        5.87          1.050        0.000
  YS02001757           JUNCTION        5.98          1.176        0.034
  YS02001895           JUNCTION        0.80          0.566        0.184
  YS02001625           JUNCTION        5.76          0.780        0.000
  YS02163301           JUNCTION        5.81          0.882        0.148
  YS02163601           JUNCTION        5.87          0.989        0.091
  YS02164001           JUNCTION        5.84          0.920        0.180
  YS02001647           JUNCTION        5.75          0.805        0.095
  YS02006553           JUNCTION        1.84          1.157        0.033
  YS02006561           JUNCTION        0.57          0.965        0.185
  YS02006556           JUNCTION        1.31          1.321        0.029
  YS02006558           JUNCTION        1.26          1.385        0.015
  YS02001783           JUNCTION        0.98          1.485        0.115
  YS02001784           JUNCTION        0.93          1.490        0.000
  YS02001786           JUNCTION        0.71          1.430        0.000
  YS02001788           JUNCTION        0.51          1.480        0.000
  YS02001790           JUNCTION        1.21          1.157        0.000
  YS02001791           JUNCTION        1.30          1.920        0.000
  YS02001793           JUNCTION        1.56          1.634        0.966
  
  
  *********************
  Node Flooding Summary
  *********************
  
  Flooding refers to all water that overflows a node, whether it ponds or not.
  --------------------------------------------------------------------------
                                                             Total   Maximum
                                 Maximum   Time of Max       Flood    Ponded
                        Hours       Rate    Occurrence      Volume     Depth
  Node                 Flooded       LPS   days hr:min    10^6 ltr    Meters
  --------------------------------------------------------------------------
  WS02006249              1.28    185.47      0  03:10       0.394     0.000
  WS02006256              4.18    801.37      0  03:10       6.514     0.000
  YS02001779              2.68    564.01      0  03:01       1.533     0.000
  YS02001890              0.01      0.41      0  02:59       0.000     0.000
  YS02001907              0.43    423.53      0  03:00       0.307     0.000
  YS02001629              0.01     15.11      0  02:26       0.000     0.000
  YS02001644              3.86   1355.33      0  03:01       7.583     0.000
  YS02001652              0.01      5.75      0  02:38       0.000     0.000
  YS02001655              0.01     12.48      0  02:38       0.000     0.000
  YS02001661              0.01    116.66      0  02:38       0.000     0.000
  YS02001649              0.06     34.23      0  03:30       0.002     0.000
  YS02001625              1.20    235.96      0  03:01       0.465     0.000
  YS02001784              0.01      5.12      0  02:59       0.000     0.000
  YS02001786              0.01     62.66      0  02:59       0.000     0.000
  YS02001788              0.01    191.36      0  02:59       0.000     0.000
  YS02001790              0.01    229.40      0  02:58       0.001     0.000
  YS02001791              0.01    205.73      0  04:36       0.000     0.000
  JK-storage              0.63    968.62      0  03:00       0.729     0.000
  XR-storage              2.98    464.75      0  03:01       1.761     0.000
  
  
  **********************
  Storage Volume Summary
  **********************
  
  --------------------------------------------------------------------------------------------------
                         Average     Avg  Evap Exfil       Maximum     Max    Time of Max    Maximum
                          Volume    Pcnt  Pcnt  Pcnt        Volume    Pcnt     Occurrence    Outflow
  Storage Unit           1000 m3    Full  Loss  Loss       1000 m3    Full    days hr:min        LPS
  --------------------------------------------------------------------------------------------------
  JK-storage               0.128      44     0     0         0.291     100       0  02:59     983.00
  CC-storage               3.257      21     0     0         3.905      25       0  03:03     400.00
  XR-storage               0.785      85     0     0         0.926     100       0  02:59     380.00
  
  
  ***********************
  Outfall Loading Summary
  ***********************
  
  ---------------------------------------------------------------------------------------------------------------------------------
                         Flow       Avg       Max       Total         Total         Total         Total         Total         Total
                         Freq      Flow      Flow      Volume           COD            SS            TN            TP         NH4-N
  Outfall Node           Pcnt       LPS       LPS    10^6 ltr            kg            kg            kg            kg            kg
  ---------------------------------------------------------------------------------------------------------------------------------
  WSC                  100.00    821.89   1217.20      20.608      2406.981      4118.762       154.003        18.110        93.191
  ---------------------------------------------------------------------------------------------------------------------------------
  System               100.00    821.89   1217.20      20.608      2406.981      4118.762       154.003        18.110        93.191
  
  
  ********************
  Link Flow Summary
  ********************
  
  -----------------------------------------------------------------------------
                                 Maximum  Time of Max   Maximum    Max/    Max/
                                  |Flow|   Occurrence   |Veloc|    Full    Full
  Link                 Type          LPS  days hr:min     m/sec    Flow   Depth
  -----------------------------------------------------------------------------
  WS02003066WSF200     CONDUIT    822.09     0  03:06      2.94    0.14    0.30
  WS02006287WS02006284 CONDUIT    413.44     0  03:02      2.04    0.19    0.30
  WS02006284WS02006280 CONDUIT    413.59     0  03:02      2.28    0.17    0.28
  WS02006280WS02006229 CONDUIT    413.59     0  03:02      3.66    0.09    0.25
  WS02006229WS02006228 CONDUIT    827.02     0  03:02      1.65    2.74    1.00
  WS02006256WS02006235 CONDUIT    264.10     0  00:12      3.74    2.80    1.00
  WS02006253WS02006251 CONDUIT    111.05     0  03:00      0.52    0.33    1.00
  WS02006252WS02006251 CONDUIT    404.29     0  06:40      3.22    1.48    1.00
  WS02006251WS02006249 CONDUIT    447.59     0  03:10      1.16    1.29    1.00
  WS02006249WS02006248 CONDUIT    417.83     0  05:50      1.09    2.29    1.00
  WS02006248WS02006247 CONDUIT    417.10     0  05:50      1.08    0.91    1.00
  WS02006247WS02006245 CONDUIT    416.98     0  05:50      1.08    3.31    1.00
  WS02006245WS02006243 CONDUIT    416.87     0  05:50      1.08    1.23    1.00
  WS02006243WS02006242 CONDUIT    416.70     0  05:50      1.08    0.89    1.00
  WS02006242WS02006240 CONDUIT    416.97     0  05:50      1.08    1.66    1.00
  WS02006240WS02006239 CONDUIT    417.94     0  05:50      1.09    1.32    1.00
  WS02006239WS02006238 CONDUIT    418.64     0  07:30      1.09    1.34    1.00
  WS02006238WS02006235 CONDUIT    420.60     0  05:50      1.09    0.94    1.00
  WS02006235WS02006234 CONDUIT    524.14     0  06:40      1.36    5.53    1.00
  WS02006234WS02006232 CONDUIT    523.32     0  06:40      1.36    1.06    1.00
  WS02006232WS02006231 CONDUIT    522.97     0  06:41      1.36    1.10    1.00
  WS02006231WS02006230 CONDUIT    523.54     0  06:40      1.36    7.94    1.00
  WS02006230WS02006229 CONDUIT    535.46     0  06:40      1.39   11.92    1.00
  WS02006228WS02006109 CONDUIT    827.23     0  03:02      1.65    3.61    1.00
  WS02006116WS02004401 CONDUIT    827.55     0  03:04      1.05    1.14    1.00
  WS02006115WS02006116 CONDUIT    827.28     0  03:04      1.05    1.06    1.00
  WS02006113WS02006111 CONDUIT    815.67     0  03:02      2.60    0.98    0.81
  WS02006112WS02006115 CONDUIT    827.03     0  03:04      1.05    0.49    1.00
  WS02006111WS02006112 CONDUIT    815.69     0  03:04      1.73    0.39    0.90
  WS02006110WS02006113 CONDUIT    828.23     0  03:02      1.76    0.75    0.90
  WS02006109WS02006110 CONDUIT    828.20     0  03:02      1.65    1.59    1.00
  WS02004411WS02004412 CONDUIT    821.50     0  03:05      1.16    1.17    0.85
  WS02004401WS02004402 CONDUIT    828.35     0  03:04      1.05    0.99    1.00
  WS02004413WS02003067 CONDUIT    821.64     0  03:06      1.41    0.35    0.69
  WS02004412WS02004413 CONDUIT    821.58     0  03:06      1.09    0.55    0.91
  WS02004410WS02004411 CONDUIT    821.99     0  03:05      1.15    1.12    0.86
  WS02004409WS02004410 CONDUIT    823.71     0  03:05      1.15    1.07    0.86
  WS02004407WS02004409 CONDUIT    827.22     0  03:04      1.64    0.29    0.62
  WS02004406WS02004407 CONDUIT    827.62     0  03:04      1.44    0.37    0.69
  WS02004405WS02004406 CONDUIT    827.81     0  03:04      1.05    1.63    1.00
  WS02004404WS02004405 CONDUIT    828.73     0  03:04      1.06    8.12    1.00
  WS02004403WS02004404 CONDUIT    828.16     0  03:04      1.05    0.60    1.00
  WS02004402WS02004403 CONDUIT    827.90     0  03:04      1.05    1.19    1.00
  WS02004139WS02001211 CONDUIT    382.03     0  03:13      0.90    0.48    0.62
  WS02004138WS02004139 CONDUIT    394.13     0  00:00      3.62    0.08    0.46
  WS02003067WS02003066 CONDUIT    821.98     0  03:06      1.53    0.26    0.48
  WS02001213WS02003059 CONDUIT    395.26     0  03:18      0.89    0.65    0.84
  WS02001212WS02001213 CONDUIT    392.91     0  03:19      1.32    0.61    0.53
  WS02001211WS02001212 CONDUIT    391.17     0  03:19      0.78    0.30    0.69
  WS02003072WS02003073 CONDUIT   1214.70     0  03:08      1.89    2.62    0.55
  WS02003069WS02003072 CONDUIT   1214.57     0  03:08      1.76    0.58    0.59
  WS02003060WS02003069 CONDUIT   1214.39     0  03:07      1.98    0.48    0.53
  WS02003059WS02003060 CONDUIT    398.20     0  03:18      0.95    0.26    0.74
  HS02004901HS02004770 CONDUIT     20.51     0  03:01      0.07    0.08    0.42
  HS02004876HS02004881 CONDUIT     76.54     0  03:01      0.95    0.81    0.12
  HS02004870HS02004876 CONDUIT     61.89     0  03:01      0.65    0.04    0.14
  HS02004842HS02004848 CONDUIT     12.41     0  03:01      0.06    0.01    0.31
  HS02004837HS02004842 CONDUIT     12.96     0  03:02      0.42    0.01    0.32
  HS02004830HS02004837 CONDUIT     43.70     0  03:01      0.57    0.04    0.11
  HS02004824HS02004830 CONDUIT     43.66     0  03:01      0.59    0.06    0.11
  HS02004817HS02004824 CONDUIT     85.68     0  03:01      0.26    0.04    0.48
  HS02004770HS02004777 CONDUIT    104.13     0  03:01      0.35    0.19    0.43
  HS02004799HS02004480 CONDUIT    258.28     0  03:01      0.83    0.33    0.44
  HS02004792HS02004799 CONDUIT    237.01     0  03:01      0.95    0.15    0.36
  HS02004788HS02004792 CONDUIT    135.41     0  03:01      1.06    0.09    0.18
  HS02004785HS02004788 CONDUIT    103.21     0  03:02      0.71    0.78    0.21
  HS02004777HS02004785 CONDUIT    103.37     0  03:01      0.42    0.13    0.35
  HS02004480HS02004478 CONDUIT    302.27     0  03:01      1.26    1.27    0.34
  HS02004479HS02004480 CONDUIT     46.24     0  03:02      0.32    0.04    0.43
  HS02004862HS02004870 CONDUIT     47.43     0  03:01      0.66    0.05    0.10
  HS02004848HS02004852 CONDUIT     21.94     0  03:01      0.45    0.02    0.07
  HS02004856HS02004862 CONDUIT     32.47     0  03:01      0.48    0.03    0.10
  HS02004852HS02004856 CONDUIT     21.85     0  03:02      0.25    0.02    0.13
  HS02004802HS02004478 CONDUIT    111.51     0  03:02      0.45    0.10    0.36
  HS02004478WS02006287 CONDUIT    413.19     0  03:01      1.75    0.12    0.26
  HS02004817HS02004807 CONDUIT     86.11     0  03:01      0.19    0.05    0.63
  HS02004807HS02004802 CONDUIT    111.36     0  03:01      0.38    0.21    0.42
  YS02001759YS02001757 CONDUIT    572.72     0  02:39      0.73    0.41    1.00
  YS02001762YS02001759 CONDUIT    289.98     0  02:38      0.37    0.33    1.00
  YS02001765YS02001762 CONDUIT    290.96     0  02:38      0.37    0.27    1.00
  YS02001770YS02001767 CONDUIT    291.04     0  02:38      0.37    1.15    1.00
  YS02001774YS02001770 CONDUIT    564.21     0  03:01      0.72    0.36    1.00
  YS02001779YS02001774 CONDUIT    564.03     0  03:01      0.72    0.28    1.00
  YS02001649YS02001757 CONDUIT    833.03     0  02:35      1.06    0.51    1.00
  YS02001767YS02001765 CONDUIT    291.30     0  02:38      0.37    0.37    1.00
  YS02006561YS02001783 CONDUIT   1142.08     0  02:58      2.27    0.59    1.00
  YS02001783YS02001784 CONDUIT   1142.22     0  02:58      2.27    1.57    1.00
  YS02001784YS02001785 CONDUIT   1143.10     0  02:58      2.27    2.66    1.00
  YS02001788YS02001790 CONDUIT   1157.71     0  02:58      2.71    0.85    1.00
  YS02001790YS02001791 CONDUIT   1266.18     0  02:55      3.41    1.38    1.00
  YS02001791YS02001793 CONDUIT   1208.96     0  02:57      6.67    0.52    1.00
  YS02001910YS02001907 CONDUIT    480.57     0  02:55      0.61    0.27    1.00
  YS02001786YS02001788 CONDUIT   1144.33     0  02:58      2.45    2.20    1.00
  YS02001915YS02001910 CONDUIT    480.51     0  02:55      0.61    0.24    1.00
  YS02001918YS02001915 CONDUIT    247.57     0  03:31      0.44    0.14    1.00
  YS02001923YS02001920 CONDUIT    204.58     0  02:55      0.71    0.09    1.00
  YS02001926YS02001923 CONDUIT    206.09     0  02:55      0.83    0.29    0.87
  YS02001929YS02001926 CONDUIT    175.68     0  02:55      0.89    0.08    0.77
  YS02001920YS02001918 CONDUIT    210.43     0  03:30      0.70    0.20    1.00
  YS02001629YS02163301 CONDUIT    206.71     0  02:27      0.26    0.25    1.00
  YS02001619YS02001622 CONDUIT    290.76     0  03:01      0.61    0.43    1.00
  YS02001622YS02001625 CONDUIT    290.62     0  03:01      0.37    0.16    1.00
  YS02001625YS02001629 CONDUIT    188.22     0  02:35      0.24    0.09    1.00
  YS02163301YS02001633 CONDUIT    208.65     0  02:27      0.27    0.20    1.00
  YS02163601YS02164001 CONDUIT    397.12     0  02:35      0.51    0.35    1.00
  YS02164001YS02001641 CONDUIT    397.87     0  02:35      0.51    0.54    1.00
  YS02001641YS02001644 CONDUIT    398.69     0  02:27      0.51    1.29    1.00
  YS02001647YS02001649 CONDUIT    654.06     0  03:01      0.83    0.35    1.00
  YS02006553YS02006556 CONDUIT    746.31     0  02:54      0.95    0.64    1.00
  YS02006556YS02006558 CONDUIT    746.20     0  02:54      0.95    0.59    1.00
  YSB6556YSB1171       CONDUIT     25.71     0  03:03      0.09    0.03    0.70
  YS02001907YS02006553 CONDUIT    745.87     0  02:54      0.83    0.88    1.00
  YS02006558YS02006561 CONDUIT   1142.10     0  02:58      4.04    2.52    1.00
  YS02001633YS02163601 CONDUIT    396.52     0  02:35      0.50    0.42    1.00
  YS02001644YS02001647 CONDUIT    654.06     0  03:01      0.83    0.38    1.00
  YS02001745YS02001748 CONDUIT    585.20     0  02:26      1.47    0.23    0.96
  YS02001748YS02001751 CONDUIT    341.84     0  03:01      1.06    0.17    1.00
  YS02001751YS02001754 CONDUIT    341.69     0  03:01      0.92    0.16    1.00
  YS02001754YS02001757 CONDUIT    341.98     0  03:01      0.44    0.14    1.00
  YS02001882YS02001884 CONDUIT     12.51     0  04:12      0.13    0.01    1.00
  YS02001884YS02001887 CONDUIT     18.63     0  03:34      0.09    0.02    1.00
  YS02001890YS02001895 CONDUIT    494.95     0  03:01      0.63    0.23    1.00
  YS02001895YS02001898 CONDUIT    494.75     0  03:01      0.63    0.86    1.00
  YS02001898YS02001901 CONDUIT    494.96     0  03:01      0.63    0.32    1.00
  YS02001901YS02001904 CONDUIT    495.00     0  03:01      0.63    0.77    1.00
  YS02001904YS02001907 CONDUIT    495.00     0  03:01      0.63    0.17    1.00
  YS02001887YS02001890 CONDUIT    494.91     0  03:01      0.63    0.85    1.00
  YS02001652YS02001649 CONDUIT    380.19     0  03:01      0.63    0.19    1.00
  YS02001655YS02001652 CONDUIT    380.31     0  03:01      0.98    0.18    1.00
  YS02001658YS02001655 CONDUIT    380.08     0  03:01      1.22    0.16    1.00
  YS02001661YS02001658 CONDUIT    589.64     0  02:23      1.55    0.23    1.00
  YS02001664YS02001661 CONDUIT    646.43     0  02:37      1.43    0.20    0.76
  YSB1154YSB6556       CONDUIT     25.82     0  03:01      0.17    0.05    0.59
  YSB1174YSB1171       CONDUIT     20.15     0  03:01      0.07    0.03    0.70
  YSB1171HS02004479    CONDUIT     44.85     0  03:02      0.54    0.03    0.55
  HS02004881HS02006253 CONDUIT     84.15     0  03:01      2.06    0.02    0.53
  YS02001793JiankangQianchi CONDUIT   1184.64     0  02:54     16.69    0.09    1.00
  YS02001757CaochengTiaoxuchi CONDUIT   1579.67     0  02:35      2.03    0.69    1.00
  WSF200WS02003060     CONDUIT    822.36     0  03:06      1.85    0.18    0.42
  1                    CONDUIT   1217.20     0  03:09      3.51    0.42    0.45
  CC-Pump-1            PUMP       200.00     0  03:00              1.00
  CC-Pump-2            PUMP       200.00     0  03:10              1.00
  JK-Pump-1            PUMP       300.00     0  02:00              1.00
  JK-Pump-2            PUMP       683.00     0  02:30              1.00
  XR-Pump-1            PUMP        95.00     0  00:00              1.00
  XR-Pump-2            PUMP        95.00     0  00:00              1.00
  XR-Pump-3            PUMP        95.00     0  00:00              1.00
  XR-Pump-4            PUMP        95.00     0  00:00              1.00
  
  
  ***************************
  Flow Classification Summary
  ***************************
  
  -------------------------------------------------------------------------------------
                      Adjusted    ---------- Fraction of Time in Flow Class ---------- 
                       /Actual         Up    Down  Sub   Sup   Up    Down  Norm  Inlet 
  Conduit               Length    Dry  Dry   Dry   Crit  Crit  Crit  Crit  Ltd   Ctrl  
  -------------------------------------------------------------------------------------
  WS02003066WSF200        1.00   0.01  0.04  0.00  0.00  0.95  0.00  0.00  0.43  0.00
  WS02006287WS02006284    1.00   0.03  0.01  0.00  0.64  0.32  0.00  0.00  0.62  0.00
  WS02006284WS02006280    1.00   0.03  0.00  0.00  0.00  0.00  0.00  0.97  0.00  0.00
  WS02006280WS02006229    1.00   0.03  0.00  0.00  0.00  0.01  0.00  0.95  0.02  0.00
  WS02006229WS02006228    1.00   0.00  0.00  0.00  1.00  0.00  0.00  0.00  0.00  0.00
  WS02006256WS02006235    1.00   0.00  0.00  0.00  0.99  0.00  0.00  0.00  0.00  0.00
  WS02006253WS02006251    1.00   0.01  0.01  0.00  0.97  0.00  0.00  0.00  0.00  0.00
  WS02006252WS02006251    1.00   0.17  0.00  0.00  0.13  0.00  0.70  0.00  0.00  0.00
  WS02006251WS02006249    1.00   0.00  0.00  0.00  1.00  0.00  0.00  0.00  0.20  0.00
  WS02006249WS02006248    1.00   0.00  0.00  0.00  0.93  0.00  0.07  0.00  0.00  0.00
  WS02006248WS02006247    1.00   0.00  0.00  0.00  0.99  0.00  0.00  0.01  0.13  0.00
  WS02006247WS02006245    1.00   0.01  0.00  0.00  0.99  0.00  0.00  0.00  0.00  0.00
  WS02006245WS02006243    1.00   0.01  0.00  0.00  0.96  0.00  0.00  0.03  0.00  0.00
  WS02006243WS02006242    1.00   0.01  0.00  0.00  0.99  0.00  0.00  0.00  0.19  0.00
  WS02006242WS02006240    1.00   0.01  0.00  0.00  0.99  0.00  0.00  0.00  0.00  0.00
  WS02006240WS02006239    1.00   0.01  0.00  0.00  0.96  0.00  0.00  0.04  0.01  0.00
  WS02006239WS02006238    1.00   0.00  0.00  0.00  0.99  0.00  0.00  0.00  0.10  0.00
  WS02006238WS02006235    1.00   0.00  0.00  0.00  0.99  0.00  0.00  0.00  0.00  0.00
  WS02006235WS02006234    1.00   0.00  0.00  0.00  0.97  0.00  0.03  0.00  0.00  0.00
  WS02006234WS02006232    1.00   0.00  0.00  0.00  0.99  0.00  0.00  0.00  0.07  0.00
  WS02006232WS02006231    1.00   0.00  0.00  0.00  0.99  0.00  0.00  0.00  0.00  0.00
  WS02006231WS02006230    1.00   0.01  0.00  0.00  0.73  0.00  0.27  0.00  0.00  0.00
  WS02006230WS02006229    1.00   0.00  0.00  0.00  0.99  0.00  0.00  0.01  0.00  0.00
  WS02006228WS02006109    1.00   0.00  0.00  0.00  1.00  0.00  0.00  0.00  0.00  0.00
  WS02006116WS02004401    1.00   0.01  0.00  0.00  0.99  0.00  0.00  0.00  0.00  0.00
  WS02006115WS02006116    1.00   0.01  0.00  0.00  0.98  0.00  0.00  0.00  0.00  0.00
  WS02006113WS02006111    1.00   0.01  0.00  0.00  0.02  0.97  0.00  0.00  0.14  0.00
  WS02006112WS02006115    1.00   0.01  0.00  0.00  0.99  0.00  0.00  0.00  0.00  0.00
  WS02006111WS02006112    1.00   0.01  0.00  0.00  0.99  0.00  0.00  0.00  0.86  0.00
  WS02006110WS02006113    1.00   0.00  0.01  0.00  0.99  0.00  0.00  0.00  0.00  0.00
  WS02006109WS02006110    1.00   0.00  0.00  0.00  0.99  0.00  0.00  0.00  0.00  0.00
  WS02004411WS02004412    1.00   0.02  0.00  0.00  0.98  0.00  0.00  0.00  0.00  0.00
  WS02004401WS02004402    1.00   0.01  0.00  0.00  0.99  0.00  0.00  0.00  0.00  0.00
  WS02004413WS02003067    1.00   0.02  0.01  0.00  0.00  0.00  0.96  0.00  0.00  0.00
  WS02004412WS02004413    1.00   0.02  0.00  0.00  0.98  0.00  0.00  0.00  0.02  0.00
  WS02004410WS02004411    1.00   0.02  0.00  0.00  0.98  0.00  0.00  0.00  0.03  0.00
  WS02004409WS02004410    1.00   0.02  0.00  0.00  0.98  0.00  0.00  0.00  0.04  0.00
  WS02004407WS02004409    1.00   0.02  0.00  0.00  0.98  0.00  0.00  0.00  0.91  0.00
  WS02004406WS02004407    1.00   0.00  0.02  0.00  0.98  0.00  0.00  0.00  0.00  0.00
  WS02004405WS02004406    1.00   0.00  0.00  0.00  1.00  0.00  0.00  0.00  0.02  0.00
  WS02004404WS02004405    1.00   0.00  0.00  0.00  1.00  0.00  0.00  0.00  0.00  0.00
  WS02004403WS02004404    1.00   0.00  0.01  0.00  0.99  0.00  0.00  0.00  0.00  0.00
  WS02004402WS02004403    1.00   0.01  0.00  0.00  0.99  0.00  0.00  0.00  0.00  0.00
  WS02004139WS02001211    1.00   0.00  0.00  0.00  1.00  0.00  0.00  0.00  0.00  0.00
  WS02004138WS02004139    1.00   0.00  0.00  0.00  1.00  0.00  0.00  0.00  1.00  0.00
  WS02003067WS02003066    1.00   0.04  0.01  0.00  0.95  0.00  0.00  0.00  0.00  0.00
  WS02001213WS02003059    1.00   0.00  0.00  0.00  1.00  0.00  0.00  0.00  0.00  0.00
  WS02001212WS02001213    1.00   0.00  0.00  0.00  0.94  0.00  0.06  0.00  0.00  0.00
  WS02001211WS02001212    1.00   0.00  0.00  0.00  1.00  0.00  0.00  0.00  0.00  0.00
  WS02003072WS02003073    1.00   0.00  0.00  0.00  0.00  0.00  0.00  1.00  0.00  0.00
  WS02003069WS02003072    1.00   0.00  0.00  0.00  1.00  0.00  0.00  0.00  0.09  0.00
  WS02003060WS02003069    1.00   0.00  0.00  0.00  0.99  0.01  0.00  0.00  0.07  0.00
  WS02003059WS02003060    1.00   0.00  0.00  0.00  1.00  0.00  0.00  0.00  0.00  0.00
  HS02004901HS02004770    1.00   0.03  0.00  0.00  0.97  0.00  0.00  0.00  0.00  0.00
  HS02004876HS02004881    1.00   0.00  0.00  0.00  0.92  0.07  0.00  0.00  0.00  0.00
  HS02004870HS02004876    1.00   0.00  0.00  0.00  1.00  0.00  0.00  0.00  0.95  0.00
  HS02004842HS02004848    1.00   0.00  0.03  0.00  0.97  0.00  0.00  0.00  0.55  0.00
  HS02004837HS02004842    1.00   0.00  0.00  0.00  1.00  0.00  0.00  0.00  0.11  0.00
  HS02004830HS02004837    1.00   0.00  0.00  0.00  1.00  0.00  0.00  0.00  0.99  0.00
  HS02004824HS02004830    1.00   0.00  0.00  0.00  1.00  0.00  0.00  0.00  0.00  0.00
  HS02004817HS02004824    1.00   0.00  0.00  0.00  1.00  0.00  0.00  0.00  1.00  0.00
  HS02004770HS02004777    1.00   0.00  0.03  0.00  0.97  0.00  0.00  0.00  0.02  0.00
  HS02004799HS02004480    1.00   0.00  0.01  0.00  0.96  0.00  0.03  0.00  0.00  0.00
  HS02004792HS02004799    1.00   0.00  0.00  0.00  1.00  0.00  0.00  0.00  0.98  0.00
  HS02004788HS02004792    1.00   0.00  0.00  0.00  1.00  0.00  0.00  0.00  0.98  0.00
  HS02004785HS02004788    1.00   0.00  0.00  0.00  1.00  0.00  0.00  0.00  0.00  0.00
  HS02004777HS02004785    1.00   0.00  0.00  0.00  1.00  0.00  0.00  0.00  0.12  0.00
  HS02004480HS02004478    1.00   0.03  0.00  0.00  0.72  0.00  0.00  0.24  0.00  0.00
  HS02004479HS02004480    1.00   0.01  0.00  0.00  0.99  0.00  0.00  0.00  0.11  0.00
  HS02004862HS02004870    1.00   0.00  0.00  0.00  1.00  0.00  0.00  0.00  0.03  0.00
  HS02004848HS02004852    1.00   0.03  0.00  0.00  0.97  0.00  0.00  0.00  0.62  0.00
  HS02004856HS02004862    1.00   0.00  0.04  0.00  0.96  0.00  0.00  0.00  0.83  0.00
  HS02004852HS02004856    1.00   0.03  0.00  0.00  0.97  0.00  0.00  0.00  0.85  0.00
  HS02004802HS02004478    1.00   0.03  0.00  0.00  0.97  0.00  0.00  0.00  0.02  0.00
  HS02004478WS02006287    1.00   0.04  0.00  0.00  0.79  0.18  0.00  0.00  0.64  0.00
  HS02004817HS02004807    1.00   0.00  0.03  0.00  0.97  0.00  0.00  0.00  0.01  0.00
  HS02004807HS02004802    1.00   0.03  0.00  0.00  0.96  0.00  0.00  0.00  0.00  0.00
  YS02001759YS02001757    1.00   0.00  0.00  0.00  1.00  0.00  0.00  0.00  0.16  0.00
  YS02001762YS02001759    1.00   0.00  0.00  0.00  1.00  0.00  0.00  0.00  0.03  0.00
  YS02001765YS02001762    1.00   0.00  0.00  0.00  1.00  0.00  0.00  0.00  0.13  0.00
  YS02001770YS02001767    1.00   0.00  0.00  0.00  1.00  0.00  0.00  0.00  0.00  0.00
  YS02001774YS02001770    1.00   0.00  0.03  0.00  0.97  0.00  0.00  0.00  0.02  0.00
  YS02001779YS02001774    1.00   0.00  0.00  0.00  1.00  0.00  0.00  0.00  0.18  0.00
  YS02001649YS02001757    1.00   0.00  0.00  0.00  1.00  0.00  0.00  0.00  0.16  0.00
  YS02001767YS02001765    1.00   0.00  0.00  0.00  1.00  0.00  0.00  0.00  0.00  0.00
  YS02006561YS02001783    1.00   0.04  0.00  0.00  0.32  0.63  0.00  0.00  0.47  0.00
  YS02001783YS02001784    1.00   0.00  0.04  0.00  0.96  0.00  0.00  0.00  0.00  0.00
  YS02001784YS02001785    1.00   0.00  0.00  0.00  1.00  0.00  0.00  0.00  0.17  0.00
  YS02001788YS02001790    1.00   0.00  0.00  0.00  0.31  0.69  0.00  0.00  0.41  0.00
  YS02001790YS02001791    1.00   0.00  0.00  0.00  0.27  0.73  0.00  0.00  0.51  0.00
  YS02001791YS02001793    1.00   0.00  0.00  0.00  0.31  0.69  0.00  0.00  0.03  0.00
  YS02001910YS02001907    1.00   0.00  0.00  0.00  0.99  0.00  0.00  0.01  0.12  0.00
  YS02001786YS02001788    1.00   0.00  0.00  0.00  0.32  0.68  0.00  0.00  0.00  0.00
  YS02001915YS02001910    1.00   0.00  0.00  0.00  0.99  0.01  0.00  0.00  0.15  0.00
  YS02001918YS02001915    1.00   0.00  0.00  0.00  0.99  0.00  0.00  0.00  0.55  0.00
  YS02001923YS02001920    1.00   0.00  0.00  0.00  1.00  0.00  0.00  0.00  0.84  0.00
  YS02001926YS02001923    1.00   0.00  0.02  0.00  0.11  0.00  0.87  0.00  0.00  0.00
  YS02001929YS02001926    1.00   0.00  0.03  0.00  0.97  0.00  0.00  0.00  0.78  0.00
  YS02001920YS02001918    1.00   0.00  0.00  0.00  1.00  0.00  0.00  0.00  0.00  0.00
  YS02001629YS02163301    1.00   0.04  0.00  0.00  0.96  0.00  0.00  0.00  0.00  0.00
  YS02001619YS02001622    1.00   0.03  0.00  0.00  0.97  0.00  0.00  0.00  0.00  0.00
  YS02001622YS02001625    1.00   0.03  0.00  0.00  0.97  0.00  0.00  0.00  0.04  0.00
  YS02001625YS02001629    1.00   0.03  0.01  0.00  0.94  0.00  0.02  0.00  0.00  0.00
  YS02163301YS02001633    1.00   0.00  0.04  0.00  0.96  0.00  0.00  0.00  0.00  0.00
  YS02163601YS02164001    1.00   0.00  0.02  0.00  0.98  0.00  0.00  0.00  0.00  0.00
  YS02164001YS02001641    1.00   0.00  0.02  0.00  0.98  0.00  0.00  0.00  0.06  0.00
  YS02001641YS02001644    1.00   0.00  0.00  0.00  1.00  0.00  0.00  0.00  0.00  0.00
  YS02001647YS02001649    1.00   0.00  0.04  0.00  0.96  0.00  0.00  0.00  0.01  0.00
  YS02006553YS02006556    1.00   0.00  0.00  0.00  1.00  0.00  0.00  0.00  0.03  0.00
  YS02006556YS02006558    1.00   0.00  0.00  0.00  1.00  0.00  0.00  0.00  0.00  0.00
  YSB6556YSB1171          1.00   0.01  0.02  0.00  0.97  0.00  0.00  0.00  0.00  0.00
  YS02001907YS02006553    1.00   0.00  0.00  0.00  0.99  0.00  0.00  0.00  0.00  0.00
  YS02006558YS02006561    1.00   0.04  0.00  0.00  0.09  0.86  0.00  0.00  0.48  0.00
  YS02001633YS02163601    1.00   0.00  0.00  0.00  1.00  0.00  0.00  0.00  0.15  0.00
  YS02001644YS02001647    1.00   0.00  0.04  0.00  0.96  0.00  0.00  0.00  0.00  0.00
  YS02001745YS02001748    1.00   0.00  0.00  0.00  0.92  0.00  0.00  0.07  0.04  0.00
  YS02001748YS02001751    1.00   0.00  0.00  0.00  0.97  0.03  0.00  0.00  0.15  0.00
  YS02001751YS02001754    1.00   0.00  0.00  0.00  0.95  0.00  0.00  0.05  0.02  0.00
  YS02001754YS02001757    1.00   0.00  0.00  0.00  1.00  0.00  0.00  0.00  0.18  0.00
  YS02001882YS02001884    1.00   0.04  0.00  0.00  0.96  0.00  0.00  0.00  0.00  0.00
  YS02001884YS02001887    1.00   0.02  0.01  0.00  0.97  0.00  0.00  0.00  0.00  0.00
  YS02001890YS02001895    1.00   0.00  0.04  0.00  0.96  0.00  0.00  0.00  0.00  0.00
  YS02001895YS02001898    1.00   0.04  0.00  0.00  0.95  0.00  0.01  0.00  0.00  0.00
  YS02001898YS02001901    1.00   0.04  0.00  0.00  0.96  0.00  0.00  0.00  0.01  0.00
  YS02001901YS02001904    1.00   0.04  0.00  0.00  0.96  0.00  0.00  0.00  0.00  0.00
  YS02001904YS02001907    1.00   0.00  0.04  0.00  0.96  0.00  0.00  0.00  0.00  0.00
  YS02001887YS02001890    1.00   0.00  0.00  0.00  0.99  0.00  0.01  0.00  0.00  0.00
  YS02001652YS02001649    1.00   0.00  0.00  0.00  1.00  0.00  0.00  0.00  0.16  0.00
  YS02001655YS02001652    1.00   0.00  0.00  0.00  0.95  0.00  0.00  0.05  0.02  0.00
  YS02001658YS02001655    1.00   0.00  0.03  0.00  0.94  0.02  0.00  0.00  0.08  0.00
  YS02001661YS02001658    1.00   0.03  0.00  0.00  0.92  0.04  0.00  0.00  0.08  0.00
  YS02001664YS02001661    1.00   0.03  0.00  0.00  0.93  0.04  0.00  0.00  0.19  0.00
  YSB1154YSB6556          1.00   0.03  0.00  0.00  0.97  0.00  0.00  0.00  0.01  0.00
  YSB1174YSB1171          1.00   0.01  0.01  0.00  0.98  0.00  0.00  0.00  0.00  0.00
  YSB1171HS02004479       1.00   0.01  0.00  0.00  0.98  0.00  0.00  0.00  0.10  0.00
  HS02004881HS02006253    1.00   0.02  0.00  0.00  0.80  0.02  0.00  0.17  0.63  0.00
  YS02001793JiankangQianchi    1.00   0.00  0.00  0.00  0.68  0.32  0.00  0.00  0.48  0.00
  YS02001757CaochengTiaoxuchi    1.00   0.00  0.06  0.00  0.94  0.00  0.00  0.00  0.00  0.00
  WSF200WS02003060        1.00   0.00  0.01  0.00  0.99  0.00  0.00  0.00  0.35  0.00
  1                       1.00   0.00  0.00  0.00  0.00  1.00  0.00  0.00  0.47  0.00
  
  
  *************************
  Conduit Surcharge Summary
  *************************
  
  ----------------------------------------------------------------------------
                                                           Hours        Hours 
                         --------- Hours Full --------   Above Full   Capacity
  Conduit                Both Ends  Upstream  Dnstream   Normal Flow   Limited
  ----------------------------------------------------------------------------
  WS02006229WS02006228        4.13      4.22      4.13      4.97         4.13
  WS02006256WS02006235        6.08      6.08      6.82      4.55         0.01
  WS02006253WS02006251        1.92      1.92      1.98      0.01         0.01
  WS02006252WS02006251        1.52      1.52      2.19      1.90         0.01
  WS02006251WS02006249        1.93      1.93      2.01      1.32         1.29
  WS02006249WS02006248        1.94      1.94      2.01      4.55         0.01
  WS02006248WS02006247        2.00      2.00      2.28      0.01         0.01
  WS02006247WS02006245        2.25      2.34      2.25      4.68         2.22
  WS02006245WS02006243        2.32      2.33      2.47      0.28         0.37
  WS02006243WS02006242        2.55      2.55      3.24      0.01         0.01
  WS02006242WS02006240        3.10      3.10      3.40      2.10         0.01
  WS02006240WS02006239        3.14      3.16      3.29      1.19         0.93
  WS02006239WS02006238        3.57      3.60      3.82      1.25         1.05
  WS02006238WS02006235        3.78      3.78      3.99      0.01         0.02
  WS02006235WS02006234        3.36      3.36      3.70      6.05         0.01
  WS02006234WS02006232        3.52      3.52      4.16      1.00         1.04
  WS02006232WS02006231        2.42      2.42      4.16      1.29         0.01
[...]
  YS02001765YS02001762        5.84      5.84      5.87      0.01         0.01
  YS02001770YS02001767        5.81      5.81      5.81      0.19         0.83
  YS02001774YS02001770        5.80      5.80      5.86      0.01         0.01
  YS02001779YS02001774        5.67      5.67      5.86      0.01         0.01
  YS02001649YS02001757        5.87      5.87      5.98      0.01         0.01
  YS02001767YS02001765        5.81      5.81      5.84      0.01         0.01
  YS02006561YS02001783        0.57      0.57      0.98      0.01         0.01
  YS02001783YS02001784        0.93      0.98      0.93      1.41         0.93
  YS02001784YS02001785        0.71      0.93      0.71      2.38         0.71
  YS02001788YS02001790        0.51      0.51      1.21      0.01         0.01
  YS02001790YS02001791        1.21      1.21      1.30      0.89         0.59
  YS02001791YS02001793        1.30      1.30      1.65      0.01         0.01
  YS02001910YS02001907        1.05      1.05      1.77      0.01         0.01
  YS02001786YS02001788        0.51      0.71      0.51      1.97         0.51
  YS02001915YS02001910        0.81      0.81      1.05      0.01         0.01
  YS02001918YS02001915        0.57      0.57      0.81      0.01         0.01
  YS02001923YS02001920        0.42      0.42      0.61      0.01         0.01
  YS02001920YS02001918        0.57      0.57      0.61      0.01         0.01
  YS02001629YS02163301        5.80      5.80      5.81      0.01         0.01
  YS02001619YS02001622        5.47      5.47      5.52      0.01         0.01
  YS02001622YS02001625        5.52      5.52      5.76      0.01         0.01
  YS02001625YS02001629        5.49      5.49      5.76      0.01         0.01
  YS02163301YS02001633        5.81      5.81      5.84      0.01         0.01
  YS02163601YS02164001        5.84      5.84      5.87      0.01         0.01
  YS02164001YS02001641        5.84      5.84      5.85      0.01         0.03
  YS02001641YS02001644        5.85      5.85      5.85      1.52         1.61
  YS02001647YS02001649        5.75      5.75      5.87      0.01         0.01
  YS02006553YS02006556        1.31      1.31      1.84      0.01         0.01
  YS02006556YS02006558        1.52      1.52      1.93      0.01         0.01
  YS02001907YS02006553        2.40      2.40      2.62      0.01         0.01
  YS02006558YS02006561        0.71      1.26      0.71      2.24         0.71
  YS02001633YS02163601        5.83      5.83      5.87      0.01         0.01
  YS02001644YS02001647        5.75      5.75      5.85      0.01         0.01
  YS02001745YS02001748        0.01      0.01      5.31      0.01         0.01
  YS02001748YS02001751        5.36      5.36      5.47      0.01         0.01
  YS02001751YS02001754        5.47      5.47      5.69      0.01         0.01
  YS02001754YS02001757        5.74      5.74      5.98      0.01         0.01
  YS02001882YS02001884        0.84      0.84      0.87      0.01         0.01
  YS02001884YS02001887        0.93      0.93      0.96      0.01         0.01
  YS02001890YS02001895        0.80      0.80      1.08      0.01         0.01
  YS02001895YS02001898        0.78      0.78      0.80      0.01         0.01
  YS02001898YS02001901        0.80      0.80      0.92      0.01         0.01
  YS02001901YS02001904        0.89      0.89      0.92      0.01         0.01
  YS02001904YS02001907        0.89      0.89      1.88      0.01         0.01
  YS02001887YS02001890        1.00      1.00      1.03      0.01         0.01
  YS02001652YS02001649        5.76      5.76      5.87      0.01         0.01
  YS02001655YS02001652        5.50      5.50      5.73      0.01         0.01
  YS02001658YS02001655        5.33      5.33      5.50      0.01         0.01
  YS02001661YS02001658        0.23      0.23      5.33      0.01         0.01
  YS02001664YS02001661        0.01      0.01      1.11      0.01         0.01
  HS02004881HS02006253        0.01      0.01      1.36      0.01         0.01
  YS02001793JiankangQianchi        1.56      1.56      4.12      0.01         0.01
  YS02001757CaochengTiaoxuchi        5.21      5.21      5.98      0.01         0.01
  
  
  ***************
  Pumping Summary
  ***************
  
  ---------------------------------------------------------------------------------------------------------
                                                  Min       Avg       Max     Total     Power    % Time Off
                        Percent   Number of      Flow      Flow      Flow    Volume     Usage    Pump Curve
  Pump                 Utilized   Start-Ups       LPS       LPS       LPS  10^6 ltr     Kw-hr    Low   High
  ---------------------------------------------------------------------------------------------------------
  CC-Pump-1               63.83           1      0.00    191.73    200.00     3.420      3.45    0.0    0.0
  CC-Pump-2               31.91           5      0.00    102.50    200.00     1.200      1.75    0.0    0.0
  JK-Pump-1               63.84           4      0.00    223.45    300.00     3.891     64.17    0.0    0.0
  JK-Pump-2               57.46           4      0.00    392.50    683.00     6.126     97.72    0.0   90.8
  XR-Pump-1               97.88           2      0.00     94.39     95.00     2.565     26.17    0.0    0.0
  XR-Pump-2               97.88           2      0.00     94.39     95.00     2.565     26.17    0.0    0.0
  XR-Pump-3               97.88           2      0.00     92.74     95.00     2.451     23.62    0.0    0.0
  XR-Pump-4               97.88           2      0.00     92.74     95.00     2.451     23.62    0.0    0.0
  
  
  ***************************
  Link Pollutant Load Summary
  ***************************
  
  ------------------------------------------------------------------------------------------
                                 COD            SS            TN            TP         NH4-N
  Link                            kg            kg            kg            kg            kg
  ------------------------------------------------------------------------------------------
  WS02003066WSF200           858.455      1576.713        22.604         1.970        11.906
  WS02006287WS02006284       268.095       498.289         9.348         0.943         5.215
  WS02006284WS02006280       268.586       499.081         9.395         0.949         5.244
  WS02006280WS02006229       268.551       499.017         9.393         0.949         5.243
  WS02006229WS02006228       866.250      1590.578        22.294         1.911        11.670
  WS02006256WS02006235       217.706       398.298         4.818         0.375         2.439
  WS02006253WS02006251        49.903        96.250         1.148         0.088         0.575
  WS02006252WS02006251       380.145       687.583         8.010         0.577         3.944
  WS02006251WS02006249       424.436       773.763         9.057         0.660         4.473
  WS02006249WS02006248       389.847       710.639         8.320         0.606         4.109
  WS02006248WS02006247       389.653       710.321         8.319         0.606         4.109
  WS02006247WS02006245       389.151       709.427         8.307         0.605         4.103
  WS02006245WS02006243       388.653       708.619         8.292         0.604         4.095
  WS02006243WS02006242       387.973       707.419         8.279         0.603         4.088
  WS02006242WS02006240       387.048       705.791         8.257         0.601         4.077
  WS02006240WS02006239       386.453       704.735         8.243         0.600         4.070
  WS02006239WS02006238       386.266       704.325         8.250         0.601         4.076
  WS02006238WS02006235       386.019       703.749         8.253         0.602         4.079
  WS02006235WS02006234       601.910      1098.927        13.013         0.972         6.486
  WS02006234WS02006232       601.280      1097.814        13.002         0.971         6.481
  WS02006232WS02006231       600.378      1096.215        12.981         0.970         6.470
  WS02006231WS02006230       599.643      1094.900        12.966         0.969         6.463
  WS02006230WS02006229       598.698      1093.308        12.936         0.966         6.447
  WS02006228WS02006109       865.019      1588.435        22.258         1.908        11.651
  WS02006116WS02004401       874.143      1604.435        22.969         1.998        12.090
  WS02006115WS02006116       875.787      1607.317        23.015         2.002        12.114
  WS02006113WS02006111       870.112      1596.150        22.955         1.998        12.094
  WS02006112WS02006115       877.199      1609.783        23.062         2.006        12.140
  WS02006111WS02006112       869.492      1595.046        22.938         1.997        12.085
  WS02006110WS02006113       870.706      1597.165        22.976         2.001        12.106
  WS02006109WS02006110       872.052      1599.478        23.032         2.006        12.138
  WS02004411WS02004412       862.348      1583.542        22.727         1.981        11.973
  WS02004401WS02004402       872.639      1601.804        22.922         1.993        12.064
  WS02004413WS02003067       859.288      1578.192        22.624         1.971        11.916
  WS02004412WS02004413       860.824      1580.866        22.683         1.977        11.949
  WS02004410WS02004411       863.661      1585.850        22.763         1.984        11.992
  WS02004409WS02004410       864.947      1588.107        22.800         1.988        12.012
  WS02004407WS02004409       866.145      1590.213        22.830         1.990        12.027
  WS02004406WS02004407       866.629      1591.068        22.838         1.990        12.031
  WS02004405WS02004406       868.514      1594.346        22.906         1.997        12.069
  WS02004404WS02004405       870.118      1597.216        22.923         1.997        12.074
  WS02004403WS02004404       869.862      1596.939        22.840         1.986        12.020
  WS02004402WS02004403       871.114      1599.133        22.879         1.989        12.041
  WS02004139WS02001211      1410.884      2324.273       117.356        14.372        72.473
  WS02004138WS02004139      1417.394      2335.027       117.880        14.436        72.796
  WS02003067WS02003066       858.656      1577.069        22.611         1.970        11.909
  WS02001213WS02003059      1443.582      2375.858       120.711        14.795        74.580
  WS02001212WS02001213      1452.919      2391.193       121.492        14.890        75.063
  WS02001211WS02001212      1455.046      2394.652       121.679        14.913        75.179
  WS02003072WS02003073      2401.084      4109.978       153.209        18.007        92.685
  WS02003069WS02003072      2406.382      4118.661       153.640        18.060        92.952
  WS02003060WS02003069      2409.237      4123.534       153.803        18.078        93.049
  WS02003059WS02003060      1440.376      2370.510       120.469        14.765        74.432
  HS02004901HS02004770        10.270        19.477         0.195         0.015         0.091
  HS02004876HS02004881        37.321        72.586         0.843         0.062         0.416
  HS02004870HS02004876        28.162        54.633         0.678         0.051         0.338
  HS02004842HS02004848         5.467        10.277         0.115         0.008         0.053
  HS02004837HS02004842        10.071        17.581         0.584         0.067         0.347
  HS02004830HS02004837        65.640       112.706         4.557         0.546         2.785
  HS02004824HS02004830        66.391       113.910         4.628         0.555         2.830
  HS02004817HS02004824        88.209       156.982         5.083         0.584         3.051
  HS02004770HS02004777        39.297        75.469         0.819         0.055         0.377
  HS02004799HS02004480       131.422       245.398         3.680         0.335         1.933
  HS02004792HS02004799       119.095       220.683         3.497         0.327         1.853
  HS02004788HS02004792        68.402       126.869         2.388         0.235         1.309
  HS02004785HS02004788        40.736        77.767         0.969         0.074         0.471
  HS02004777HS02004785        40.061        76.671         0.909         0.067         0.434
  HS02004480HS02004478       165.974       312.640         4.244         0.375         2.196
  HS02004479HS02004480        38.154        72.990         0.885         0.079         0.463
  HS02004862HS02004870        21.017        40.120         0.536         0.043         0.270
  HS02004848HS02004852         8.058        15.280         0.167         0.011         0.077
  HS02004856HS02004862        14.073        27.343         0.284         0.019         0.133
  HS02004852HS02004856         8.065        15.292         0.167         0.011         0.077
  HS02004802HS02004478       102.893       186.904         5.163         0.576         3.055
  HS02004478WS02006287       268.289       498.612         9.365         0.945         5.225
  HS02004817HS02004807        86.892       154.871         4.957         0.568         2.972
  HS02004807HS02004802       103.117       187.252         5.194         0.580         3.075
  YS02001759YS02001757       347.619       632.609         6.974         0.483         3.408
  YS02001762YS02001759       148.341       270.099         3.213         0.226         1.596
  YS02001765YS02001762       148.176       270.100         3.232         0.228         1.607
  YS02001770YS02001767       146.317       267.470         3.001         0.196         1.458
  YS02001774YS02001770       166.554       320.636         3.230         0.212         1.560
  YS02001779YS02001774       165.528       318.565         3.310         0.225         1.617
  YS02001649YS02001757       318.443       564.768         6.422         0.446         3.082
  YS02001767YS02001765       148.295       270.466         3.251         0.230         1.619
  YS02006561YS02001783       953.716      1750.614        20.157         1.511        10.055
  YS02001783YS02001784       953.588      1750.410        20.152         1.511        10.052
  YS02001784YS02001785       960.917      1762.161        20.865         1.600        10.498
  YS02001788YS02001790       961.491      1763.098        20.938         1.609        10.544
  YS02001790YS02001791       962.549      1764.848        21.044         1.623        10.611
  YS02001791YS02001793       962.471      1764.709        21.040         1.622        10.608
  YS02001910YS02001907       330.002       598.913         8.219         0.641         4.245
  YS02001786YS02001788       961.100      1762.478        20.892         1.604        10.516
  YS02001915YS02001910       330.094       599.057         8.176         0.634         4.216
  YS02001918YS02001915       156.501       271.455         4.574         0.427         2.493
  YS02001923YS02001920       136.703       239.891         2.624         0.182         1.272
  YS02001926YS02001923       136.437       239.500         2.587         0.178         1.248
  YS02001929YS02001926       136.227       239.152         2.556         0.174         1.229
  YS02001920YS02001918       156.566       271.660         4.543         0.422         2.472
  YS02001629YS02163301       103.543       183.466         2.172         0.140         1.012
  YS02001619YS02001622       146.407       262.954         3.031         0.197         1.414
  YS02001622YS02001625       145.250       261.125         3.003         0.195         1.401
  YS02001625YS02001629       104.622       185.250         2.195         0.142         1.023
  YS02163301YS02001633       103.261       182.990         2.164         0.140         1.010
  YS02163601YS02164001       362.080       646.273         7.117         0.503         3.404
  YS02164001YS02001641       361.610       645.482         7.097         0.501         3.393
  YS02001641YS02001644       361.859       645.829         7.096         0.500         3.392
  YS02001647YS02001649       368.959       663.005         7.343         0.511         3.507
  YS02006553YS02006556       675.237      1234.269        14.559         1.118         7.336
  YS02006556YS02006558       675.207      1234.199        14.527         1.113         7.315
  YSB6556YSB1171              21.960        42.209         0.452         0.038         0.230
  YS02001907YS02006553       675.335      1234.473        14.572         1.120         7.345
  YS02006558YS02006561       953.701      1750.581        20.156         1.511        10.054
  YS02001633YS02163601       362.766       647.332         7.096         0.498         3.387
  YS02001644YS02001647       373.456       671.256         7.417         0.516         3.542
  YS02001745YS02001748       211.005       387.950         4.817         0.341         2.416
  YS02001748YS02001751       208.898       383.966         4.857         0.350         2.451
  YS02001751YS02001754       207.986       382.463         4.846         0.351         2.447
  YS02001754YS02001757       208.739       383.596         5.009         0.373         2.553
  YS02001882YS02001884         3.509         6.097         0.070         0.005         0.035
  YS02001884YS02001887         6.783        12.005         0.133         0.010         0.066
  YS02001890YS02001895       389.361       720.471         7.187         0.539         3.507
  YS02001895YS02001898       389.179       720.221         7.181         0.539         3.504
  YS02001898YS02001901       388.961       719.849         7.176         0.538         3.501
  YS02001901YS02001904       388.821       719.656         7.183         0.539         3.506
  YS02001904YS02001907       389.031       719.973         7.236         0.547         3.541
  YS02001887YS02001890       390.157       721.656         7.242         0.546         3.540
  YS02001652YS02001649       150.260       275.141         3.063         0.220         1.436
  YS02001655YS02001652       150.766       275.953         3.077         0.221         1.443
  YS02001658YS02001655       150.297       275.213         2.990         0.210         1.387
  YS02001661YS02001658       153.217       280.415         3.050         0.214         1.415
  YS02001664YS02001661       176.614       319.731         3.563         0.249         1.650
  YSB1154YSB6556              21.538        41.538         0.403         0.032         0.199
  YSB1174YSB1171              14.655        28.292         0.298         0.024         0.150
  YSB1171HS02004479           38.112        72.922         0.888         0.080         0.465
  HS02004881HS02006253        42.455        82.966         0.927         0.067         0.455
  YS02001793JiankangQianchi       966.276      1770.785        21.199         1.639        10.699
  YS02001757CaochengTiaoxuchi       617.857      1106.099        13.143         0.942         6.468
  WSF200WS02003060           858.064      1576.020        22.598         1.970        11.903
  1                         2406.981      4118.762       154.003        18.110        93.191
  CC-Pump-1                  282.607       511.503         5.949         0.429         2.929
  CC-Pump-2                   97.562       176.120         2.061         0.149         1.015
  JK-Pump-1                  274.290       503.161         5.990         0.463         3.022
  JK-Pump-2                  495.168       919.962        10.320         0.776         5.143
  XR-Pump-1                  365.960       602.384        30.565         3.745        18.882
  XR-Pump-2                  365.960       602.384        30.565         3.745        18.882
  XR-Pump-3                  344.632       568.235        28.536         3.492        17.616
  XR-Pump-4                  344.632       568.235        28.536         3.492        17.616
  

  Analysis begun on:  Wed Jul 14 09:35:24 2021
  Analysis ended on:  Wed Jul 14 09:35:28 2021
  Total elapsed time: 00:00:04