
  EPA STORM WATER MANAGEMENT MODEL - VERSION 5.1 (Build 5.3.0.dev0)
  --------------------------------------------------------------

  WARNING 04: minimum elevation drop used for Conduit WS02004404WS02004405
  WARNING 03: negative offset ignored for Link YS02001904YS02001907
  
  *********************************************************
  NOTE: The summary statistics displayed in this report are
  based on results found at every computational time step,  
  not just on results from each reporting time step.
  *********************************************************
  
  ****************
  Analysis Options
  ****************
  Flow Units ............... LPS
  Process Models:
    Rainfall/Runoff ........ YES
    RDII ................... NO
    Snowmelt ............... NO
    Groundwater ............ NO
    Flow Routing ........... YES
    Ponding Allowed ........ NO
    Water Quality .......... YES
  Infiltration Method ...... HORTON
  Flow Routing Method ...... DYNWAVE
  Surcharge Method ......... EXTRAN
  Starting Date ............ 08/28/2015 08:00:00
  Ending Date .............. 08/28/2015 15:50:00
  Antecedent Dry Days ...... 8.0
  Report Time Step ......... 00:01:00
  Wet Time Step ............ 00:01:00
  Dry Time Step ............ 00:01:00
  Routing Time Step ........ 5.00 sec
  Variable Time Step ....... YES
  Maximum Trials ........... 8
  Number of Threads ........ 4
  Head Tolerance ........... 0.001500 m
  
  
  **************************        Volume         Depth
  Runoff Quantity Continuity     hectare-m            mm
  **************************     ---------       -------
  Total Precipitation ......         5.556        12.164
  Evaporation Loss .........         0.000         0.000
  Infiltration Loss ........         1.002         2.194
  Surface Runoff ...........         3.688         8.075
  Final Storage ............         0.866         1.897
  Continuity Error (%) .....        -0.019
  
  
  **************************           COD            SS            TN            TP         NH4-N
  Runoff Quality Continuity             kg            kg            kg            kg            kg
  **************************    ----------    ----------    ----------    ----------    ----------
  Initial Buildup ..........     41378.656     70582.865      1804.177       168.684      1032.807
  Surface Buildup ..........        19.275        34.271         2.335         0.213         1.362
  Wet Deposition ...........         0.000         0.000         0.000         0.000         0.000
  Sweeping Removal .........         0.000         0.000         0.000         0.000         0.000
  Infiltration Loss ........        84.023       157.502         1.599         0.111         0.761
  BMP Removal ..............         0.000         0.000         0.000         0.000         0.000
  Surface Runoff ...........      3122.074      5752.154        60.620         4.098        28.771
  Remaining Buildup ........     38190.779     64705.500      1744.271       164.686      1004.628
  Continuity Error (%) .....         0.003         0.003         0.001         0.001         0.001
  
  
  **************************        Volume        Volume
  Flow Routing Continuity        hectare-m      10^6 ltr
  **************************     ---------     ---------
  Dry Weather Inflow .......         0.616         6.165
  Wet Weather Inflow .......         3.687        36.869
  Groundwater Inflow .......         0.000         0.000
  RDII Inflow ..............         0.000         0.000
  External Inflow ..........         0.102         1.024
  External Outflow .........         2.041        20.410
  Flooding Loss ............         1.937        19.368
  Evaporation Loss .........         0.000         0.000
  Exfiltration Loss ........         0.000         0.000
  Initial Stored Volume ....         0.076         0.761
  Final Stored Volume ......         0.626         6.261
  Continuity Error (%) .....        -2.723
  
  
  **************************           COD            SS            TN            TP         NH4-N
  Quality Routing Continuity            kg            kg            kg            kg            kg
  **************************    ----------    ----------    ----------    ----------    ----------
  Dry Weather Inflow .......      1541.201      2465.922       147.955        18.494        92.472
  Wet Weather Inflow .......      3121.189      5750.630        60.602         4.097        28.762
  Groundwater Inflow .......         0.000         0.000         0.000         0.000         0.000
  RDII Inflow ..............         0.000         0.000         0.000         0.000         0.000
  External Inflow ..........       183.418       293.469        17.608         2.201        11.005
  External Outflow .........      2373.561      4057.458       153.546        18.093        93.006
  Flooding Loss ............      1790.236      3286.433        45.707         3.953        23.957
  Exfiltration Loss ........         0.000         0.000         0.000         0.000         0.000
  Mass Reacted .............         0.000         0.000         0.000         0.000         0.000
  Initial Stored Mass ......         0.000         0.000         0.000         0.000         0.000
  Final Stored Mass ........       518.934       885.293        23.044         2.449        13.333
  Continuity Error (%) .....         3.365         3.300         1.710         1.198         1.470
  
  
  *************************
  Highest Continuity Errors
  *************************
  Node HS02004842 (14.53%)
  Node JK-storage (-12.07%)
  Node YS02001884 (10.91%)
  Node WS02006253 (2.75%)
  Node YSB1171 (2.74%)
  
  
  ***************************
  Time-Step Critical Elements
  ***************************
  Link WS02006252WS02006251 (73.15%)
  Link WS02006280WS02006229 (8.15%)
  Link WS02006238WS02006235 (3.38%)
  Link WS02006235WS02006234 (2.24%)
  Link YS02001793JiankangQianchi (1.89%)
  
  
  ********************************
  Highest Flow Instability Indexes
  ********************************
  Link YS02163301YS02001633 (44)
  Link YS02163601YS02164001 (44)
  Link YS02001629YS02163301 (43)
  Link YS02001619YS02001622 (43)
  Link YS02164001YS02001641 (39)
  
  
  *************************
  Routing Time Step Summary
  *************************
  Minimum Time Step           :     0.12 sec
  Average Time Step           :     1.03 sec
  Maximum Time Step           :     5.00 sec
  Percent in Steady State     :    -0.00
  Average Iterations per Step :     4.66
  Percent Not Converging      :    20.72
  
  
  ***************************
  Subcatchment Runoff Summary
  ***************************
  
  ------------------------------------------------------------------------------------------------------------------------------
                            Total      Total      Total      Total     Imperv       Perv      Total       Total     Peak  Runoff
                           Precip      Runon       Evap      Infil     Runoff     Runoff     Runoff      Runoff   Runoff   Coeff
  Subcatchment                 mm         mm         mm         mm         mm         mm         mm    10^6 ltr      LPS
  ------------------------------------------------------------------------------------------------------------------------------
  sub0                      12.16       0.00       0.00       0.65      11.27       0.20      11.47        0.01     1.99   0.943
  sub1                      12.16       0.00       0.00       1.12      10.73       0.22      10.95        0.07    14.96   0.900
  sub2                      12.16       0.00       0.00       4.23       7.58       0.27       7.85        0.07    15.08   0.646
  sub3                      12.16       0.00       0.00       4.29       7.54       0.21       7.75        0.17    34.61   0.637
  sub4                      12.16       0.00       0.00       1.19      10.57       0.14      10.71        0.22    42.34   0.881
  sub5                      12.16       0.00       0.00       0.69      11.21       0.16      11.38        0.13    26.18   0.935
  sub7                      12.16       0.00       0.00       0.88      11.01       0.22      11.22        0.04     7.95   0.923
  sub8                      12.16       0.00       0.00       0.89      11.00       0.21      11.20        0.07    14.89   0.921
  sub9                      12.16       0.00       0.00       0.89      10.99       0.21      11.20        0.05    11.18   0.921
  sub10                     12.16       0.00       0.00       0.79      11.10       0.18      11.28        0.12    25.49   0.928
  sub11                     12.16       0.00       0.00       0.78      11.12       0.19      11.31        0.13    27.35   0.930
  sub12                     12.16       0.00       0.00       1.27      10.53       0.31      10.85        0.09    20.52   0.892
  sub14                     12.16       0.00       0.00       0.89      10.99       0.20      11.20        0.11    22.08   0.920
  sub15                     12.16       0.00       0.00       3.28       8.45       0.37       8.82        0.15    32.49   0.725
  sub16                     12.16       0.00       0.00       3.51       8.11       0.50       8.61        0.09    20.36   0.708
  sub17                     12.16       0.00       0.00       3.41       8.23       0.48       8.71        0.07    16.72   0.716
  sub22                     12.16       0.00       0.00       4.80       6.89       0.43       7.32        0.46   102.62   0.602
  sub23                     12.16       0.00       0.00       4.05       7.62       0.45       8.07        0.38    85.35   0.663
  sub60                     12.16       0.00       0.00       1.42       8.82       0.04       8.86        2.69   336.84   0.729
  sub61                     12.16       0.00       0.00       2.01       8.94       0.06       9.00        2.78   399.45   0.740
  sub62                     12.16       0.00       0.00       0.92       9.73       0.05       9.78        3.01   415.79   0.804
  sub63                     12.16       0.00       0.00       3.46       7.82       0.06       7.88        2.39   361.21   0.648
  sub64                     12.16       0.00       0.00       1.78       8.47       0.04       8.51        2.59   320.97   0.699
  sub65                     12.16       0.00       0.00       1.54       8.61       0.04       8.65        2.66   326.54   0.711
  sub66                     12.16       0.00       0.00       3.49       7.26       0.04       7.30        2.24   290.53   0.600
  sub67                     12.16       0.00       0.00       0.91      10.24       0.07      10.31        3.18   494.23   0.848
  sub68                     12.16       0.00       0.00       1.64       9.40       0.06       9.46        2.91   432.52   0.778
  sub69                     12.16       0.00       0.00       1.73       9.72       0.09       9.82        2.29   383.95   0.807
  sub70                     12.16      10.02       0.00       6.98      13.09       0.56      13.65        3.12   394.93   0.615
  sub71                     12.16       0.00       0.00       0.93       9.48       0.05       9.53        2.25   296.34   0.783
  sub72                     12.16       0.00       0.00       0.83       7.62       0.02       7.64        1.56   151.13   0.628
  1                         12.16      13.29       0.00       1.37      14.64       3.94      18.57        4.36   399.24   0.730
  2                         12.16       0.00       0.00       3.02       2.89       1.65       4.55        1.82   245.52   0.374
  
  
  ****************************
  Subcatchment Washoff Summary
  ****************************
  
  ------------------------------------------------------------------------------------------
                                 COD            SS            TN            TP         NH4-N
  Subcatchment                    kg            kg            kg            kg            kg
  ------------------------------------------------------------------------------------------
  sub0                         2.176         4.147         0.037         0.003         0.018
  sub1                         9.268        18.138         0.173         0.012         0.083
  sub2                         5.563        10.570         0.119         0.008         0.054
  sub3                        13.747        25.918         0.288         0.019         0.132
  sub4                        21.530        42.606         0.429         0.026         0.205
  sub5                        21.300        41.103         0.378         0.029         0.183
  sub7                         4.748         9.424         0.090         0.006         0.043
  sub8                         7.142        14.500         0.143         0.008         0.069
  sub9                         6.100        12.212         0.118         0.007         0.057
  sub10                       17.532        34.266         0.321         0.023         0.155
  sub11                       17.086        33.770         0.320         0.022         0.154
  sub12                       14.392        27.890         0.260         0.019         0.125
  sub14                       13.021        25.823         0.247         0.016         0.119
  sub15                       16.182        30.744         0.313         0.023         0.146
  sub16                       10.318        19.555         0.197         0.015         0.092
  sub17                        9.471        17.789         0.175         0.014         0.082
  sub22                       48.821        90.813         0.932         0.070         0.434
  sub23                       29.138        56.181         0.627         0.041         0.287
  sub60                      203.703       376.194         4.083         0.248         1.956
  sub61                      251.300       461.579         4.699         0.320         2.261
  sub62                      262.762       491.326         5.157         0.324         2.474
  sub63                      185.047       334.594         3.739         0.261         1.731
  sub64                      253.867       452.095         4.687         0.339         2.235
  sub65                      260.106       465.192         4.834         0.344         2.309
  sub66                      146.558       263.078         3.037         0.197         1.417
  sub67                      388.205       718.566         6.963         0.510         3.363
  sub68                      276.714       513.393         5.318         0.356         2.539
  sub69                      247.676       464.012         4.658         0.325         2.225
  sub70                      413.256       778.342         8.287         0.572         3.877
  sub71                      173.740       327.842         3.597         0.206         1.720
  sub72                      136.329       239.316         2.558         0.174         1.230
  1                          280.724       531.718         5.751         0.398         2.660
  2                           35.485        61.812         1.030         0.062         0.437
  ------------------------------------------------------------------------------------------
  System                    3783.006      6994.507        73.566         4.996        34.873
  
  
  ******************
  Node Depth Summary
  ******************
  
  ---------------------------------------------------------------------------------
                                 Average  Maximum  Maximum  Time of Max    Reported
                                   Depth    Depth      HGL   Occurrence   Max Depth
  Node                 Type       Meters   Meters   Meters  days hr:min      Meters
  ---------------------------------------------------------------------------------
  WS02001211           JUNCTION     0.78     0.83     5.67     0  03:09        0.83
  WS02001212           JUNCTION     0.49     0.55     5.62     0  03:08        0.55
  WS02001213           JUNCTION     0.73     0.83     5.59     0  03:07        0.83
  WS02003069           JUNCTION     0.53     0.68     5.27     0  03:07        0.68
  WS02003072           JUNCTION     0.59     0.73     5.10     0  03:07        0.73
  WS02003073           JUNCTION     0.36     0.46     4.52     0  03:08        0.46
  WS02003060           JUNCTION     0.47     0.60     5.53     0  03:06        0.60
  WS02003066           JUNCTION     0.26     0.36     5.92     0  03:05        0.36
  WS02003059           JUNCTION     0.78     0.88     5.57     0  03:07        0.88
  WS02003067           JUNCTION     0.63     0.79     6.11     0  03:04        0.79
  WS02004401           JUNCTION     0.75     1.14     7.14     0  03:03        1.13
  WS02004402           JUNCTION     0.78     1.14     7.10     0  03:03        1.14
  WS02004403           JUNCTION     0.80     1.13     7.06     0  03:03        1.12
  WS02004404           JUNCTION     0.87     1.18     7.03     0  03:02        1.17
  WS02004406           JUNCTION     0.87     1.12     6.95     0  03:03        1.11
  WS02004409           JUNCTION     0.57     0.87     6.64     0  03:04        0.87
  WS02004410           JUNCTION     0.58     0.87     6.59     0  03:04        0.87
  WS02004411           JUNCTION     0.60     0.86     6.54     0  03:04        0.86
  WS02004412           JUNCTION     0.61     0.85     6.49     0  03:04        0.85
  WS02004413           JUNCTION     0.77     0.98     6.45     0  03:05        0.98
  WS02004405           JUNCTION     0.87     1.15     7.00     0  03:01        1.15
  WS02006109           JUNCTION     0.84     1.31     7.93     0  03:01        1.31
  WS02006110           JUNCTION     0.82     1.15     7.74     0  03:02        1.14
  WS02006111           JUNCTION     0.25     0.65     7.36     0  03:03        0.65
  WS02006112           JUNCTION     0.93     1.42     7.30     0  03:02        1.41
  WS02006113           JUNCTION     0.39     0.65     7.54     0  03:02        0.65
  WS02006115           JUNCTION     0.65     1.09     7.23     0  03:03        1.09
  WS02006116           JUNCTION     0.73     1.14     7.18     0  03:03        1.14
  WS02006230           JUNCTION     0.87     1.52     8.27     0  03:02        1.51
  WS02006231           JUNCTION     0.60     1.22     8.34     0  03:01        1.21
  WS02006232           JUNCTION     0.75     1.36     8.40     0  03:02        1.35
  WS02006234           JUNCTION     0.69     1.32     8.48     0  03:02        1.31
  WS02006235           JUNCTION     0.74     1.37     8.53     0  03:02        1.35
  WS02006238           JUNCTION     0.76     1.39     8.53     0  03:01        1.39
  WS02006240           JUNCTION     0.67     1.28     8.57     0  03:02        1.27
  WS02006242           JUNCTION     0.72     1.34     8.60     0  02:59        1.32
  WS02006243           JUNCTION     0.60     1.21     8.63     0  03:01        1.20
  WS02006245           JUNCTION     0.57     1.17     8.66     0  02:59        1.16
  WS02006247           JUNCTION     0.58     1.17     8.67     0  02:59        1.17
  WS02006248           JUNCTION     0.52     1.10     8.68     0  02:59        1.09
  WS02006249           JUNCTION     0.54     1.09     8.69     0  02:59        1.09
  WS02006239           JUNCTION     0.72     1.35     8.56     0  03:02        1.34
  WS02006251           JUNCTION     0.51     1.24     8.91     0  05:00        1.14
  WS02006252           JUNCTION     0.33     0.79     9.04     0  05:00        0.68
  WS02006253           JUNCTION     0.54     1.29     8.93     0  05:00        1.17
  WS02006256           JUNCTION     1.82     2.35     9.28     0  00:00        2.35
  WS02004138           JUNCTION     0.19     0.20     7.45     0  00:00        0.19
  WS02004139           JUNCTION     0.72     0.77     5.68     0  03:09        0.77
  WS02004407           JUNCTION     0.25     0.37     6.68     0  03:03        0.37
  WS02006228           JUNCTION     0.86     1.44     8.09     0  03:02        1.43
  WS02006229           JUNCTION     0.85     1.49     8.18     0  03:02        1.48
  WS02006280           JUNCTION     0.07     0.20     8.47     0  03:02        0.20
  WS02006284           JUNCTION     0.37     0.56     8.96     0  03:02        0.56
  WS02006287           JUNCTION     0.10     0.30     9.25     0  03:01        0.30
  WSF200               JUNCTION     0.25     0.40     5.64     0  03:05        0.40
  HS02004901           JUNCTION     0.13     0.29    10.12     0  03:01        0.29
  HS02004881           JUNCTION     0.01     0.04     9.07     0  03:01        0.04
  HS02004876           JUNCTION     0.04     0.12     9.15     0  03:01        0.12
  HS02004870           JUNCTION     0.02     0.07     9.35     0  03:01        0.07
  HS02004862           JUNCTION     0.02     0.08     9.46     0  03:01        0.08
  HS02004856           JUNCTION     0.08     0.13     9.55     0  03:01        0.13
  HS02004852           JUNCTION     0.01     0.05     9.56     0  03:01        0.05
  HS02004848           JUNCTION     0.01     0.05     9.65     0  03:01        0.05
  HS02004842           JUNCTION     0.33     0.38     9.65     0  03:01        0.38
  HS02004837           JUNCTION     0.03     0.07     9.65     0  03:01        0.07
  HS02004830           JUNCTION     0.04     0.08     9.55     0  03:01        0.08
  HS02004824           JUNCTION     0.02     0.06     9.47     0  03:01        0.06
  HS02004817           JUNCTION     0.44     0.61     9.45     0  03:01        0.61
  HS02004807           JUNCTION     0.13     0.28     9.45     0  03:01        0.28
  HS02004802           JUNCTION     0.16     0.31     9.44     0  03:01        0.31
  HS02004799           JUNCTION     0.12     0.35     9.56     0  03:01        0.35
  HS02004792           JUNCTION     0.03     0.15     9.67     0  03:01        0.15
  HS02004788           JUNCTION     0.03     0.11    10.01     0  03:01        0.11
  HS02004785           JUNCTION     0.05     0.18    10.09     0  03:01        0.18
  HS02004777           JUNCTION     0.15     0.31    10.11     0  03:01        0.31
  HS02004770           JUNCTION     0.12     0.29    10.12     0  03:01        0.29
  HS02004480           JUNCTION     0.08     0.28     9.52     0  03:01        0.28
  HS02004479           JUNCTION     0.12     0.32     9.52     0  03:01        0.32
  HS02004478           JUNCTION     0.06     0.20     9.42     0  03:01        0.20
  YS02001745           JUNCTION     0.75     0.92     8.44     0  03:00        0.91
  YS02001748           JUNCTION     1.16     1.37     8.45     0  02:30        1.36
  YS02001751           JUNCTION     1.34     1.56     8.44     0  02:59        1.55
  YS02001754           JUNCTION     1.60     1.83     8.44     0  02:58        1.82
  YS02001762           JUNCTION     1.80     2.04     8.44     0  02:58        2.03
  YS02001765           JUNCTION     1.75     1.99     8.44     0  02:58        1.98
  YS02001767           JUNCTION     1.71     1.94     8.43     0  02:59        1.93
  YS02001770           JUNCTION     1.71     1.93     8.42     0  02:58        1.91
  YS02001774           JUNCTION     1.78     1.98     8.40     0  02:59        1.98
  YS02001779           JUNCTION     1.52     1.68     8.37     0  02:35        1.68
  YS02001882           JUNCTION     0.54     1.62     8.34     0  03:00        1.61
  YS02001884           JUNCTION     0.63     1.72     8.34     0  02:58        1.71
  YS02001759           JUNCTION     1.83     2.08     8.44     0  02:59        2.07
  YS02001887           JUNCTION     0.71     1.80     8.34     0  02:58        1.78
  YS02001890           JUNCTION     0.74     1.81     8.32     0  02:55        1.81
  YS02001898           JUNCTION     0.51     1.56     8.29     0  02:59        1.56
  YS02001901           JUNCTION     0.63     1.68     8.28     0  02:59        1.67
  YS02001904           JUNCTION     0.61     1.64     8.27     0  02:56        1.63
  YS02001907           JUNCTION     0.94     1.96     8.25     0  02:53        1.96
  YS02001910           JUNCTION     0.73     1.77     8.28     0  02:55        1.77
  YS02001915           JUNCTION     0.52     1.58     8.30     0  02:55        1.57
  YS02001918           JUNCTION     0.27     1.25     8.32     0  02:55        1.24
  YS02001619           JUNCTION     1.30     1.61     8.54     0  02:26        1.53
  YS02001629           JUNCTION     1.66     1.85     8.40     0  02:26        1.84
  YS02001641           JUNCTION     1.76     1.94     8.37     0  02:34        1.93
  YS02001644           JUNCTION     1.76     1.92     8.35     0  02:34        1.92
  YS02001652           JUNCTION     1.61     2.16     8.76     0  02:41        1.90
  YS02001655           JUNCTION     1.37     2.20     9.05     0  02:41        1.76
  YS02001920           JUNCTION     0.37     1.32     8.33     0  02:55        1.31
  YS02001923           JUNCTION     0.21     1.07     8.33     0  02:55        1.06
  YS02001926           JUNCTION     0.27     0.90     8.34     0  02:54        0.89
  YS02001929           JUNCTION     0.15     0.65     8.34     0  02:54        0.64
  YS02001658           JUNCTION     1.10     2.30     9.44     0  02:41        1.73
  YS02001661           JUNCTION     0.86     2.46     9.86     0  02:41        1.77
  YS02001664           JUNCTION     0.38     0.58     8.50     0  02:37        0.56
  YS02001622           JUNCTION     1.32     1.59     8.50     0  02:26        1.53
  YS02001633           JUNCTION     1.75     1.95     8.41     0  02:34        1.94
  YS02001649           JUNCTION     1.81     2.05     8.44     0  02:37        2.05
  YS02001757           JUNCTION     1.93     2.18     8.44     0  02:59        2.17
  YS02001895           JUNCTION     0.50     1.56     8.31     0  02:59        1.55
  YS02001625           JUNCTION     1.61     1.78     8.38     0  02:26        1.78
  YS02163301           JUNCTION     1.69     1.89     8.41     0  02:34        1.88
  YS02163601           JUNCTION     1.80     2.00     8.40     0  02:34        1.98
  YS02164001           JUNCTION     1.74     1.93     8.39     0  02:34        1.91
  YS02001647           JUNCTION     1.59     1.80     8.41     0  02:40        1.79
  YSB1154              JUNCTION     0.26     0.47     9.52     0  03:01        0.47
  YSB6556              JUNCTION     0.15     0.35     9.52     0  03:01        0.35
  YSB1174              JUNCTION     0.21     0.41     9.52     0  03:01        0.41
  YSB1171              JUNCTION     0.41     0.62     9.52     0  03:01        0.62
  YS02006553           JUNCTION     0.94     1.97     8.25     0  02:59        1.96
  YS02006561           JUNCTION     0.29     1.05     7.71     0  03:08        1.04
  YS02006556           JUNCTION     0.91     1.94     8.25     0  02:59        1.91
  YS02006558           JUNCTION     0.95     1.97     8.24     0  02:59        1.95
  YS02001783           JUNCTION     0.51     1.47     7.62     0  02:23        1.42
  YS02001784           JUNCTION     0.53     1.40     7.47     0  02:23        1.37
  YS02001786           JUNCTION     0.46     1.28     7.31     0  02:23        1.20
  YS02001788           JUNCTION     0.39     1.17     7.15     0  02:23        1.07
  YS02001790           JUNCTION     0.50     1.96     7.60     0  04:37        1.23
  YS02001791           JUNCTION     0.45     2.72     8.19     0  04:36        1.24
  YS02001793           JUNCTION     0.62     3.21     8.04     0  04:34        1.80
  WSC                  OUTFALL      0.36     0.46     1.13     0  03:08        0.46
  JK-storage           STORAGE      2.65     5.80     6.60     0  02:23        5.80
  CC-storage           STORAGE      1.19     1.41     8.41     0  03:05        1.41
  XR-storage           STORAGE      6.61     7.72     5.72     0  03:01        7.72
  
  
  *******************
  Node Inflow Summary
  *******************
  
  -------------------------------------------------------------------------------------------------
                                  Maximum  Maximum                  Lateral       Total        Flow
                                  Lateral    Total  Time of Max      Inflow      Inflow     Balance
                                   Inflow   Inflow   Occurrence      Volume      Volume       Error
  Node                 Type           LPS      LPS  days hr:min    10^6 ltr    10^6 ltr     Percent
  -------------------------------------------------------------------------------------------------
  WS02001211           JUNCTION      7.35   389.75     0  03:19       0.207        10.3       0.399
  WS02001212           JUNCTION      0.00   392.07     0  03:19           0        10.2       0.243
  WS02001213           JUNCTION      0.00   394.18     0  03:18           0        10.2       0.290
  WS02003069           JUNCTION      0.32  1221.49     0  03:07     0.00902        20.5       0.188
  WS02003072           JUNCTION      0.00  1221.45     0  03:07           0        20.5       0.221
  WS02003073           JUNCTION      1.82  1223.40     0  03:08      0.0514        20.5       0.257
  WS02003060           JUNCTION     16.53  1221.06     0  03:06       0.466        20.5       0.177
  WS02003066           JUNCTION      0.00   829.18     0  03:05           0        9.95       0.053
  WS02003059           JUNCTION      0.00   397.07     0  03:18           0        10.2       0.408
  WS02003067           JUNCTION      0.00   828.92     0  03:05           0        9.96       0.107
  WS02004401           JUNCTION      0.00   831.60     0  03:03           0        10.2       0.241
  WS02004402           JUNCTION      0.00   832.61     0  03:03           0        10.2       0.224
  WS02004403           JUNCTION      0.00   831.92     0  03:03           0        10.2       0.201
  WS02004404           JUNCTION      0.16   832.39     0  03:03     0.00457        10.2       0.148
  WS02004406           JUNCTION      0.00   831.73     0  03:03           0        10.1       0.361
  WS02004409           JUNCTION      0.00   831.22     0  03:03           0        10.1       0.202
  WS02004410           JUNCTION      0.00   829.82     0  03:04           0        10.1       0.224
  WS02004411           JUNCTION      0.00   829.14     0  03:04           0          10       0.226
  WS02004412           JUNCTION      0.00   828.85     0  03:04           0          10       0.238
  WS02004413           JUNCTION      0.00   828.86     0  03:05           0        9.99       0.344
  WS02004405           JUNCTION      0.04   833.09     0  03:03     0.00107        10.2       0.220
  WS02006109           JUNCTION      1.23   818.51     0  03:02      0.0347        10.3       0.215
  WS02006110           JUNCTION      0.00   818.40     0  03:02           0        10.3       0.208
  WS02006111           JUNCTION      0.00   817.72     0  03:02           0        10.2       0.054
  WS02006112           JUNCTION     16.72   831.24     0  03:03      0.0747        10.3       0.330
  WS02006113           JUNCTION      0.00   818.37     0  03:02           0        10.3       0.119
  WS02006115           JUNCTION      0.00   831.25     0  03:03           0        10.3       0.244
  WS02006116           JUNCTION      0.00   831.53     0  03:03           0        10.2       0.208
  WS02006230           JUNCTION     10.28   532.91     0  06:53        0.29        8.14       0.219
  WS02006231           JUNCTION      0.00   522.79     0  06:51           0        7.86       0.157
  WS02006232           JUNCTION      0.00   523.03     0  06:52           0        7.88       0.235
  WS02006234           JUNCTION      0.00   523.37     0  06:50           0        7.89       0.142
  WS02006235           JUNCTION      0.00   523.87     0  06:52           0        7.96       0.151
  WS02006238           JUNCTION      0.00   413.56     0  07:30           0        4.39       0.225
  WS02006240           JUNCTION      0.00   413.51     0  07:31           0        4.37       0.390
  WS02006242           JUNCTION      0.00   413.93     0  07:30           0        4.37       0.429
  WS02006243           JUNCTION      0.00   414.36     0  07:30           0        4.37       0.380
  WS02006245           JUNCTION      0.00   414.89     0  07:30           0        4.37       0.338
  WS02006247           JUNCTION      0.00   415.14     0  07:30           0        4.38       0.262
  WS02006248           JUNCTION      0.00   415.90     0  07:30           0        4.39       0.225
  WS02006249           JUNCTION      0.00   420.67     0  05:00           0        4.47       0.351
  WS02006239           JUNCTION      0.00   413.21     0  07:31           0        4.38       0.307
  WS02006251           JUNCTION      0.08   411.83     0  07:31     0.00217        4.54       0.386
  WS02006252           JUNCTION      0.00   400.00     0  07:30           0        4.08       0.014
  WS02006253           JUNCTION      1.99    86.08     0  03:01     0.00928       0.468       2.831
  WS02006256           JUNCTION      0.00   983.00     0  02:30           0        10.5       0.000
  WS02004138           JUNCTION      0.00   380.00     0  00:00           0        10.1       0.063
  WS02004139           JUNCTION      0.32   395.85     0  00:00     0.00905        10.1       0.455
  WS02004407           JUNCTION      0.00   831.57     0  03:03           0        10.1       0.090
  WS02006228           JUNCTION      0.00   817.38     0  03:02           0        10.3       0.166
  WS02006229           JUNCTION      0.00   817.57     0  03:02           0        10.3       0.146
  WS02006280           JUNCTION      0.00   413.65     0  03:02           0        2.17       0.007
  WS02006284           JUNCTION      0.10   413.60     0  03:02      0.0027        2.17       0.042
  WS02006287           JUNCTION      0.00   413.25     0  03:01           0        2.17       0.033
  WSF200               JUNCTION      0.00   829.27     0  03:05           0        9.94       0.053
  HS02004901           JUNCTION     20.36    20.36     0  03:01      0.0902      0.0904       1.990
  HS02004881           JUNCTION      7.95    84.19     0  03:01      0.0378        0.41       0.108
  HS02004876           JUNCTION     14.96    76.75     0  03:01      0.0728       0.373       0.148
  HS02004870           JUNCTION     14.89    62.15     0  03:01      0.0716         0.3       0.037
  HS02004862           JUNCTION     15.28    47.68     0  03:01      0.0788       0.229       0.076
  HS02004856           JUNCTION     11.18    32.72     0  03:01      0.0539       0.152       0.960
  HS02004852           JUNCTION      0.00    21.94     0  03:01           0      0.0979       0.059
  HS02004848           JUNCTION     34.61    34.61     0  03:01       0.174       0.174       0.028
  HS02004842           JUNCTION      0.00    12.41     0  03:01           0      0.0895      16.998
  HS02004837           JUNCTION     31.84    43.95     0  03:01       0.303        0.38       0.214
  HS02004830           JUNCTION      0.15    43.86     0  03:01     0.00423        0.37       0.335
  HS02004824           JUNCTION     42.39    85.90     0  03:01       0.225       0.594       0.091
  HS02004817           JUNCTION      0.60    86.29     0  03:01      0.0169        0.61       2.809
  HS02004807           JUNCTION     27.35   112.31     0  03:01       0.131       0.725       0.605
  HS02004802           JUNCTION      0.00   111.37     0  03:01           0       0.723       0.548
  HS02004799           JUNCTION     22.08   258.94     0  03:01       0.107        1.24       0.223
  HS02004792           JUNCTION    102.90   238.00     0  03:01        0.47        1.14       0.036
  HS02004788           JUNCTION     34.16   135.93     0  03:01       0.199       0.669       0.059
  HS02004785           JUNCTION      0.15   103.52     0  03:01     0.00423       0.471       0.106
  HS02004777           JUNCTION      0.03   104.16     0  03:01    0.000846       0.472       1.115
  HS02004770           JUNCTION     85.35   105.11     0  03:01       0.385       0.473       0.659
  HS02004480           JUNCTION      0.00   302.47     0  03:01           0        1.46       0.076
  HS02004479           JUNCTION      0.00    44.92     0  03:02           0       0.232       0.317
  HS02004478           JUNCTION      0.00   413.11     0  03:01           0        2.17       0.014
  YS02001745           JUNCTION    336.84   336.84     0  03:01        2.69        2.69       0.367
  YS02001748           JUNCTION      0.04   485.06     0  02:28     0.00127        2.68       0.817
  YS02001751           JUNCTION      0.01   341.49     0  03:00     0.00031        2.66       0.883
  YS02001754           JUNCTION      0.26   341.09     0  03:00     0.00733        2.64       0.948
  YS02001762           JUNCTION      0.00   292.17     0  02:38           0        1.94       1.109
  YS02001765           JUNCTION      0.00   292.15     0  02:38           0        1.94       1.271
  YS02001767           JUNCTION      0.54   291.54     0  02:38      0.0151        1.96       1.853
  YS02001770           JUNCTION    415.94   565.48     0  03:01        3.01        3.34       0.953
  YS02001774           JUNCTION      0.00   566.08     0  03:01           0         1.7       1.507
  YS02001779           JUNCTION      0.01   565.49     0  03:01    0.000141        1.67       0.935
  YS02001882           JUNCTION      0.00    23.16     0  02:25           0      0.0202      13.147
  YS02001884           JUNCTION      0.00    52.96     0  02:25           0      0.0572      12.245
  YS02001759           JUNCTION    399.49   573.69     0  02:38        2.78        4.35       0.532
  YS02001887           JUNCTION    494.68   494.77     0  03:01        3.19        3.22       0.267
  YS02001890           JUNCTION      0.00   495.46     0  03:00           0        3.18       0.294
  YS02001898           JUNCTION      0.00   494.74     0  03:01           0        3.16       0.101
  YS02001901           JUNCTION      0.00   494.58     0  03:01           0        3.16       0.225
  YS02001904           JUNCTION      0.00   494.93     0  03:01           0        3.16       0.207
  YS02001907           JUNCTION      0.00   960.46     0  03:00           0        7.02       0.353
  YS02001910           JUNCTION      0.00   479.12     0  02:55           0        3.87       0.306
  YS02001915           JUNCTION    296.36   479.02     0  02:55        2.25        3.88       0.161
  YS02001918           JUNCTION      0.00   209.46     0  03:30           0        1.63       0.121
  YS02001619           JUNCTION    290.53   290.53     0  03:01        2.24        2.24       0.535
  YS02001629           JUNCTION      0.00   204.61     0  02:17           0        1.69       1.710
  YS02001641           JUNCTION      0.00   399.13     0  02:34           0        4.25       0.499
  YS02001644           JUNCTION    321.01  1350.34     0  03:01        2.59        9.77       0.270
  YS02001652           JUNCTION      0.00   374.20     0  03:01           0        2.35       1.016
  YS02001655           JUNCTION      0.15   373.90     0  03:01     0.00434        2.37       1.026
  YS02001920           JUNCTION      2.87   206.13     0  02:55      0.0809        1.63       0.184
  YS02001923           JUNCTION      0.04   199.37     0  02:55     0.00106        1.55       0.050
  YS02001926           JUNCTION      0.05   175.84     0  02:55     0.00147        1.56       0.218
  YS02001929           JUNCTION    151.13   151.13     0  03:01        1.56        1.56       0.036
  YS02001658           JUNCTION      0.00   608.14     0  02:23           0        2.41       0.851
  YS02001661           JUNCTION      0.00   644.57     0  02:36           0        2.94      -0.236
  YS02001664           JUNCTION    361.21   370.72     0  02:36        2.38        2.93       0.179
  YS02001622           JUNCTION      0.00   290.75     0  03:01           0        2.22       1.444
  YS02001633           JUNCTION    326.74   398.81     0  02:35        2.66        4.31       0.746
  YS02001649           JUNCTION      0.00   834.39     0  02:35           0        5.56       0.674
  YS02001757           JUNCTION      0.00  1578.51     0  02:35           0        9.14       1.019
  YS02001895           JUNCTION      0.00   494.26     0  03:00           0        3.17       0.169
  YS02001625           JUNCTION      0.00   290.83     0  03:01           0        2.19       1.799
  YS02163301           JUNCTION      0.00   205.65     0  02:26           0        1.67       1.452
  YS02163601           JUNCTION      0.11   398.73     0  02:35      0.0031        4.27       0.704
  YS02164001           JUNCTION      0.00   398.93     0  02:34           0        4.25       0.470
  YS02001647           JUNCTION      0.00   651.59     0  03:01           0        4.71       0.606
  YSB1154              JUNCTION     26.18    26.18     0  03:01       0.129        0.13       1.130
  YSB6556              JUNCTION      0.00    25.82     0  03:01           0        0.13       0.969
  YSB1174              JUNCTION     20.52    20.52     0  03:01      0.0948      0.0953       1.368
  YSB1171              JUNCTION      0.00    45.30     0  03:01           0       0.231       2.821
  YS02006553           JUNCTION      0.00   745.95     0  02:54           0        6.73       0.230
  YS02006561           JUNCTION      0.00  1142.48     0  02:56           0        9.61       0.005
  YS02006556           JUNCTION      0.00   745.72     0  02:54           0        6.74       0.175
  YS02006558           JUNCTION    433.40  1142.91     0  02:56        2.93        9.64       0.056
  YS02001783           JUNCTION      0.00  1142.41     0  02:56           0        9.61       0.025
  YS02001784           JUNCTION      1.06  1143.67     0  02:56      0.0299        9.64       0.038
  YS02001786           JUNCTION      0.06  1143.51     0  02:56     0.00159        9.64       0.037
  YS02001788           JUNCTION      0.07  1143.49     0  02:56       0.002        9.63       0.025
  YS02001790           JUNCTION      0.15  1154.15     0  02:55     0.00437        9.64       0.023
  YS02001791           JUNCTION      0.00  1245.47     0  02:54           0        9.63       0.005
  YS02001793           JUNCTION      0.00  1172.51     0  02:54           0        9.64      -0.002
  WSC                  OUTFALL       0.00  1223.68     0  03:08           0        20.4       0.000
  JK-storage           STORAGE       0.00  1164.70     0  02:55           0        9.79     -10.769
  CC-storage           STORAGE       0.00  1579.91     0  02:35           0        7.53       0.819
  XR-storage           STORAGE     844.76   844.76     0  03:01        11.8        12.4      -0.002
  
  
  **********************
  Node Surcharge Summary
  **********************
  
  Surcharging occurs when water rises above the top of the highest conduit.
  ---------------------------------------------------------------------
                                               Max. Height   Min. Depth
                                   Hours       Above Crown    Below Rim
  Node                 Type      Surcharged         Meters       Meters
  ---------------------------------------------------------------------
  WS02004401           JUNCTION        0.30          0.136        1.524
  WS02004402           JUNCTION        0.35          0.141        1.599
  WS02004403           JUNCTION        0.36          0.126        1.904
  WS02004404           JUNCTION        0.75          0.178        2.602
  WS02004406           JUNCTION        0.60          0.116        2.334
  WS02004405           JUNCTION        0.67          0.155        2.645
  WS02006109           JUNCTION        4.39          0.490        1.330
  WS02006110           JUNCTION        1.66          0.243        1.607
  WS02006112           JUNCTION        2.32          0.418        1.262
  WS02006115           JUNCTION        0.18          0.080        2.170
  WS02006116           JUNCTION        0.20          0.085        2.205
  WS02006230           JUNCTION        1.16          0.441        1.129
  WS02006231           JUNCTION        1.80          0.506        1.024
  WS02006232           JUNCTION        4.20          0.661        0.819
  WS02006234           JUNCTION        3.17          0.600        0.640
  WS02006235           JUNCTION        3.68          0.659        0.631
  WS02006238           JUNCTION        3.78          0.670        0.760
  WS02006240           JUNCTION        3.15          0.570        0.820
  WS02006242           JUNCTION        3.28          0.605        0.215
  WS02006243           JUNCTION        2.29          0.499        0.271
  WS02006245           JUNCTION        2.03          0.462        0.388
  WS02006247           JUNCTION        2.05          0.463        0.297
  WS02006248           JUNCTION        1.61          0.378        0.002
  WS02006249           JUNCTION        1.72          0.390        0.000
  WS02006239           JUNCTION        3.38          0.609        0.681
  WS02006251           JUNCTION        0.47          0.212        0.968
  WS02006252           JUNCTION        1.80          0.395        0.705
  WS02006253           JUNCTION        0.51          0.246        2.234
  WS02006256           JUNCTION        6.88          2.050        0.000
  WS02006228           JUNCTION        4.35          0.608        1.592
  YS02001748           JUNCTION        5.30          0.288        0.902
  YS02001751           JUNCTION        5.49          0.557        0.643
  YS02001754           JUNCTION        5.69          0.779        0.371
  YS02001762           JUNCTION        5.87          1.039        0.111
  YS02001765           JUNCTION        5.84          0.985        0.115
  YS02001767           JUNCTION        5.81          0.941        0.089
  YS02001770           JUNCTION        5.80          0.897        0.023
  YS02001774           JUNCTION        5.86          0.981        0.069
  YS02001779           JUNCTION        5.67          0.680        0.000
  YS02001882           JUNCTION        0.84          0.620        0.210
  YS02001884           JUNCTION        0.87          0.658        0.212
  YS02001759           JUNCTION        5.89          1.077        0.133
  YS02001887           JUNCTION        0.97          0.747        0.203
  YS02001890           JUNCTION        1.01          0.760        0.000
  YS02001898           JUNCTION        0.79          0.530        0.210
  YS02001901           JUNCTION        0.92          0.675        0.195
  YS02001904           JUNCTION        0.89          0.638        0.212
  YS02001907           JUNCTION        1.75          0.950        0.000
  YS02001910           JUNCTION        1.07          0.774        0.326
  YS02001915           JUNCTION        0.81          0.584        0.416
  YS02001918           JUNCTION        0.57          0.250        0.560
  YS02001619           JUNCTION        5.47          0.610        0.000
  YS02001629           JUNCTION        5.48          0.470        0.000
  YS02001641           JUNCTION        5.85          0.936        0.164
  YS02001644           JUNCTION        5.85          0.920        0.000
  YS02001652           JUNCTION        5.73          1.130        0.000
  YS02001655           JUNCTION        5.50          1.200        0.000
  YS02001920           JUNCTION        0.60          0.322        0.818
  YS02001658           JUNCTION        5.33          1.300        0.000
  YS02001661           JUNCTION        0.20          1.390        0.000
  YS02001622           JUNCTION        5.50          0.592        0.028
  YS02001633           JUNCTION        5.83          0.934        0.126
  YS02001649           JUNCTION        5.88          1.050        0.000
  YS02001757           JUNCTION        5.97          1.177        0.033
  YS02001895           JUNCTION        0.80          0.564        0.186
  YS02001625           JUNCTION        5.76          0.780        0.000
  YS02163301           JUNCTION        5.81          0.890        0.140
  YS02163601           JUNCTION        5.87          1.002        0.078
  YS02164001           JUNCTION        5.83          0.931        0.169
  YS02001647           JUNCTION        5.75          0.804        0.096
  YS02006553           JUNCTION        1.84          0.967        0.223
  YS02006561           JUNCTION        0.57          0.250        0.900
  YS02006556           JUNCTION        1.35          0.897        0.453
  YS02006558           JUNCTION        1.31          0.874        0.526
  YS02001783           JUNCTION        1.12          0.675        0.925
  YS02001784           JUNCTION        1.05          0.601        0.889
  YS02001786           JUNCTION        0.80          0.478        0.952
  YS02001788           JUNCTION        0.59          0.372        1.108
  YS02001790           JUNCTION        1.38          1.157        0.000
  YS02001791           JUNCTION        1.47          1.920        0.000
  YS02001793           JUNCTION        1.84          2.206        0.394
  
  
  *********************
  Node Flooding Summary
  *********************
  
  Flooding refers to all water that overflows a node, whether it ponds or not.
  --------------------------------------------------------------------------
                                                             Total   Maximum
                                 Maximum   Time of Max       Flood    Ponded
                        Hours       Rate    Occurrence      Volume     Depth
  Node                 Flooded       LPS   days hr:min    10^6 ltr    Meters
  --------------------------------------------------------------------------
  WS02006249              0.41     99.05      0  05:00       0.066     0.000
  WS02006256              4.22    810.37      0  03:02       6.824     0.000
  YS02001779              2.71    565.30      0  03:01       1.647     0.000
  YS02001890              0.01      0.79      0  03:00       0.000     0.000
  YS02001907              0.43    341.09      0  03:00       0.273     0.000
  YS02001619              0.01      6.73      0  02:26       0.000     0.000
  YS02001629              0.01     15.32      0  02:26       0.000     0.000
  YS02001644              4.30   1350.03      0  03:01       7.983     0.000
  YS02001652              0.01     17.72      0  02:41       0.000     0.000
  YS02001655              0.01     21.22      0  02:41       0.000     0.000
  YS02001658              0.01      9.82      0  02:41       0.000     0.000
  YS02001661              0.01    165.88      0  02:41       0.000     0.000
  YS02001649              0.06     46.21      0  02:41       0.002     0.000
  YS02001625              1.19    236.86      0  03:01       0.464     0.000
  YS02001790              0.01    143.08      0  04:37       0.000     0.000
  YS02001791              0.01    261.22      0  04:36       0.000     0.000
  JK-storage              0.52    435.61      0  04:40       0.405     0.000
  XR-storage              2.95    458.11      0  03:01       1.704     0.000
  
  
  **********************
  Storage Volume Summary
  **********************
  
  --------------------------------------------------------------------------------------------------
                         Average     Avg  Evap Exfil       Maximum     Max    Time of Max    Maximum
                          Volume    Pcnt  Pcnt  Pcnt        Volume    Pcnt     Occurrence    Outflow
  Storage Unit           1000 m3    Full  Loss  Loss       1000 m3    Full    days hr:min        LPS
  --------------------------------------------------------------------------------------------------
  JK-storage               0.133      46     0     0         0.291     100       0  02:23     983.00
  CC-storage               3.314      21     0     0         3.916      25       0  03:05     400.00
  XR-storage               0.793      86     0     0         0.926     100       0  03:01     380.00
  
  
  ***********************
  Outfall Loading Summary
  ***********************
  
  ---------------------------------------------------------------------------------------------------------------------------------
                         Flow       Avg       Max       Total         Total         Total         Total         Total         Total
                         Freq      Flow      Flow      Volume           COD            SS            TN            TP         NH4-N
  Outfall Node           Pcnt       LPS       LPS    10^6 ltr            kg            kg            kg            kg            kg
  ---------------------------------------------------------------------------------------------------------------------------------
  WSC                   99.99    815.19   1223.68      20.410      2373.775      4057.816       153.563        18.095        93.016
  ---------------------------------------------------------------------------------------------------------------------------------
  System                99.99    815.19   1223.68      20.410      2373.775      4057.816       153.563        18.095        93.016
  
  
  ********************
  Link Flow Summary
  ********************
  
  -----------------------------------------------------------------------------
                                 Maximum  Time of Max   Maximum    Max/    Max/
                                  |Flow|   Occurrence   |Veloc|    Full    Full
  Link                 Type          LPS  days hr:min     m/sec    Flow   Depth
  -----------------------------------------------------------------------------
  WS02003066WSF200     CONDUIT    829.27     0  03:05      2.94    0.14    0.30
  WS02006287WS02006284 CONDUIT    413.50     0  03:02      2.04    0.19    0.30
  WS02006284WS02006280 CONDUIT    413.65     0  03:02      2.28    0.17    0.28
  WS02006280WS02006229 CONDUIT    413.65     0  03:02      3.62    0.09    0.25
  WS02006229WS02006228 CONDUIT    817.38     0  03:02      1.63    2.71    1.00
  WS02006256WS02006235 CONDUIT    288.92     0  00:00      4.23    3.06    1.00
  WS02006253WS02006251 CONDUIT     94.27     0  02:59      0.56    0.28    1.00
  WS02006252WS02006251 CONDUIT    401.16     0  07:30      3.19    1.47    1.00
  WS02006251WS02006249 CONDUIT    420.67     0  05:00      1.09    1.21    1.00
  WS02006249WS02006248 CONDUIT    415.90     0  07:30      1.08    2.28    1.00
  WS02006248WS02006247 CONDUIT    415.14     0  07:30      1.08    0.90    1.00
  WS02006247WS02006245 CONDUIT    414.89     0  07:30      1.08    3.29    1.00
  WS02006245WS02006243 CONDUIT    414.36     0  07:30      1.08    1.23    1.00
  WS02006243WS02006242 CONDUIT    413.93     0  07:30      1.08    0.88    1.00
  WS02006242WS02006240 CONDUIT    413.51     0  07:31      1.07    1.64    1.00
  WS02006240WS02006239 CONDUIT    413.21     0  07:31      1.07    1.30    1.00
  WS02006239WS02006238 CONDUIT    413.56     0  07:30      1.07    1.32    1.00
  WS02006238WS02006235 CONDUIT    415.20     0  07:30      1.45    0.93    1.00
  WS02006235WS02006234 CONDUIT    523.37     0  06:50      1.36    5.52    1.00
  WS02006234WS02006232 CONDUIT    523.03     0  06:52      1.39    1.06    1.00
  WS02006232WS02006231 CONDUIT    522.79     0  06:51      1.36    1.10    1.00
  WS02006231WS02006230 CONDUIT    522.63     0  06:53      1.36    7.93    1.00
  WS02006230WS02006229 CONDUIT    533.58     0  05:00      1.39   11.87    1.00
  WS02006228WS02006109 CONDUIT    817.28     0  03:02      1.63    3.57    1.00
  WS02006116WS02004401 CONDUIT    831.60     0  03:03      1.06    1.15    1.00
  WS02006115WS02006116 CONDUIT    831.53     0  03:03      1.06    1.07    1.00
  WS02006113WS02006111 CONDUIT    817.72     0  03:02      2.60    0.98    0.81
  WS02006112WS02006115 CONDUIT    831.25     0  03:03      1.06    0.49    1.00
  WS02006111WS02006112 CONDUIT    818.96     0  03:03      1.73    0.39    0.90
  WS02006110WS02006113 CONDUIT    818.37     0  03:02      1.73    0.74    0.90
  WS02006109WS02006110 CONDUIT    818.40     0  03:02      1.63    1.57    1.00
  WS02004411WS02004412 CONDUIT    828.85     0  03:04      1.16    1.18    0.85
  WS02004401WS02004402 CONDUIT    832.61     0  03:03      1.06    1.00    1.00
  WS02004413WS02003067 CONDUIT    828.92     0  03:05      1.42    0.35    0.70
  WS02004412WS02004413 CONDUIT    828.86     0  03:05      1.10    0.56    0.91
  WS02004410WS02004411 CONDUIT    829.14     0  03:04      1.15    1.13    0.86
  WS02004409WS02004410 CONDUIT    829.82     0  03:04      1.15    1.07    0.87
  WS02004407WS02004409 CONDUIT    831.22     0  03:03      1.64    0.29    0.62
  WS02004406WS02004407 CONDUIT    831.57     0  03:03      1.45    0.37    0.69
  WS02004405WS02004406 CONDUIT    831.73     0  03:03      1.10    1.64    1.00
  WS02004404WS02004405 CONDUIT    833.05     0  03:03      1.15    8.16    1.00
  WS02004403WS02004404 CONDUIT    832.23     0  03:03      1.06    0.60    1.00
  WS02004402WS02004403 CONDUIT    831.92     0  03:03      1.06    1.20    1.00
  WS02004139WS02001211 CONDUIT    382.40     0  03:19      0.90    0.48    0.63
  WS02004138WS02004139 CONDUIT    395.52     0  00:00      3.64    0.08    0.46
  WS02003067WS02003066 CONDUIT    829.18     0  03:05      1.54    0.27    0.48
  WS02001213WS02003059 CONDUIT    397.07     0  03:18      0.89    0.66    0.84
  WS02001212WS02001213 CONDUIT    394.18     0  03:18      1.32    0.61    0.53
  WS02001211WS02001212 CONDUIT    392.07     0  03:19      0.78    0.30    0.69
  WS02003072WS02003073 CONDUIT   1221.58     0  03:08      1.90    2.64    0.55
  WS02003069WS02003072 CONDUIT   1221.45     0  03:07      1.77    0.59    0.59
  WS02003060WS02003069 CONDUIT   1221.17     0  03:07      1.99    0.48    0.53
  WS02003059WS02003060 CONDUIT    400.59     0  03:17      0.95    0.26    0.74
  HS02004901HS02004770 CONDUIT     20.52     0  03:01      0.07    0.08    0.42
  HS02004876HS02004881 CONDUIT     76.55     0  03:01      0.95    0.81    0.12
  HS02004870HS02004876 CONDUIT     61.90     0  03:01      0.65    0.04    0.14
  HS02004842HS02004848 CONDUIT     12.41     0  03:01      0.06    0.01    0.31
  HS02004837HS02004842 CONDUIT     12.98     0  03:02      0.42    0.01    0.32
  HS02004830HS02004837 CONDUIT     43.71     0  03:01      0.57    0.04    0.11
  HS02004824HS02004830 CONDUIT     43.67     0  03:01      0.59    0.06    0.11
  HS02004817HS02004824 CONDUIT     85.69     0  03:01      0.26    0.04    0.48
  HS02004770HS02004777 CONDUIT    104.13     0  03:01      0.35    0.19    0.43
  HS02004799HS02004480 CONDUIT    258.32     0  03:01      0.83    0.33    0.44
  HS02004792HS02004799 CONDUIT    237.06     0  03:01      0.95    0.15    0.36
  HS02004788HS02004792 CONDUIT    135.44     0  03:01      1.06    0.09    0.18
  HS02004785HS02004788 CONDUIT    103.22     0  03:02      0.71    0.78    0.21
  HS02004777HS02004785 CONDUIT    103.37     0  03:01      0.42    0.13    0.35
  HS02004480HS02004478 CONDUIT    302.31     0  03:01      1.26    1.27    0.34
  HS02004479HS02004480 CONDUIT     46.31     0  03:02      0.32    0.04    0.43
  HS02004862HS02004870 CONDUIT     47.43     0  03:01      0.66    0.05    0.10
  HS02004848HS02004852 CONDUIT     21.94     0  03:01      0.45    0.02    0.07
  HS02004856HS02004862 CONDUIT     32.47     0  03:01      0.48    0.03    0.10
  HS02004852HS02004856 CONDUIT     21.85     0  03:02      0.25    0.02    0.13
  HS02004802HS02004478 CONDUIT    111.52     0  03:02      0.45    0.10    0.36
  HS02004478WS02006287 CONDUIT    413.25     0  03:01      1.75    0.12    0.26
  HS02004817HS02004807 CONDUIT     86.14     0  03:01      0.19    0.05    0.63
  HS02004807HS02004802 CONDUIT    111.37     0  03:01      0.38    0.21    0.42
  YS02001759YS02001757 CONDUIT    573.71     0  02:39      0.73    0.41    1.00
  YS02001762YS02001759 CONDUIT    292.12     0  02:38      0.37    0.34    1.00
  YS02001765YS02001762 CONDUIT    292.17     0  02:38      0.37    0.27    1.00
  YS02001770YS02001767 CONDUIT    291.01     0  02:38      0.37    1.15    1.00
  YS02001774YS02001770 CONDUIT    566.08     0  03:01      0.72    0.36    1.00
  YS02001779YS02001774 CONDUIT    565.48     0  03:01      0.72    0.28    1.00
  YS02001649YS02001757 CONDUIT    836.14     0  02:35      1.06    0.51    1.00
  YS02001767YS02001765 CONDUIT    292.15     0  02:38      0.37    0.37    1.00
  YS02006561YS02001783 CONDUIT   1142.41     0  02:56      2.27    0.59    1.00
  YS02001783YS02001784 CONDUIT   1142.61     0  02:56      2.27    1.58    1.00
  YS02001784YS02001785 CONDUIT   1143.45     0  02:56      2.27    2.66    1.00
  YS02001788YS02001790 CONDUIT   1153.99     0  02:55      2.72    0.85    1.00
  YS02001790YS02001791 CONDUIT   1245.47     0  02:54      3.37    1.36    1.00
  YS02001791YS02001793 CONDUIT   1172.51     0  02:54      6.02    0.50    1.00
  YS02001910YS02001907 CONDUIT    479.03     0  02:55      0.61    0.27    1.00
  YS02001786YS02001788 CONDUIT   1143.42     0  02:56      2.46    2.20    1.00
  YS02001915YS02001910 CONDUIT    479.12     0  02:55      0.61    0.24    1.00
  YS02001918YS02001915 CONDUIT    246.55     0  03:31      0.44    0.14    1.00
  YS02001923YS02001920 CONDUIT    203.26     0  02:55      0.72    0.09    1.00
  YS02001926YS02001923 CONDUIT    199.34     0  02:55      0.83    0.28    0.87
  YS02001929YS02001926 CONDUIT    175.79     0  02:55      0.89    0.08    0.77
  YS02001920YS02001918 CONDUIT    209.46     0  03:30      0.70    0.20    1.00
  YS02001629YS02163301 CONDUIT    205.65     0  02:26      0.26    0.25    1.00
  YS02001619YS02001622 CONDUIT    290.75     0  03:01      0.61    0.43    1.00
  YS02001622YS02001625 CONDUIT    290.83     0  03:01      0.37    0.16    1.00
  YS02001625YS02001629 CONDUIT    204.61     0  02:17      0.26    0.10    1.00
  YS02163301YS02001633 CONDUIT    207.70     0  02:26      0.26    0.20    1.00
  YS02163601YS02164001 CONDUIT    398.93     0  02:34      0.51    0.35    1.00
  YS02164001YS02001641 CONDUIT    399.13     0  02:34      0.51    0.54    1.00
  YS02001641YS02001644 CONDUIT    398.50     0  02:34      0.51    1.29    1.00
  YS02001647YS02001649 CONDUIT    651.59     0  03:01      0.83    0.34    1.00
  YS02006553YS02006556 CONDUIT    745.72     0  02:54      0.95    0.64    1.00
  YS02006556YS02006558 CONDUIT    745.69     0  02:54      0.95    0.59    1.00
  YSB6556YSB1171       CONDUIT     25.77     0  03:03      0.09    0.03    0.70
  YS02001907YS02006553 CONDUIT    745.95     0  02:54      0.83    0.88    1.00
  YS02006558YS02006561 CONDUIT   1142.48     0  02:56      4.04    2.53    1.00
  YS02001633YS02163601 CONDUIT    398.62     0  02:35      0.51    0.42    1.00
  YS02001644YS02001647 CONDUIT    651.64     0  03:01      0.83    0.38    1.00
  YS02001745YS02001748 CONDUIT    485.01     0  02:28      1.47    0.19    0.96
  YS02001748YS02001751 CONDUIT    341.48     0  03:00      1.06    0.17    1.00
  YS02001751YS02001754 CONDUIT    340.83     0  03:00      0.92    0.16    1.00
  YS02001754YS02001757 CONDUIT    340.81     0  03:01      0.43    0.14    1.00
  YS02001882YS02001884 CONDUIT     23.16     0  02:25      0.13    0.03    1.00
  YS02001884YS02001887 CONDUIT     52.96     0  02:25      0.09    0.07    1.00
  YS02001890YS02001895 CONDUIT    494.26     0  03:00      0.63    0.23    1.00
  YS02001895YS02001898 CONDUIT    494.74     0  03:01      0.63    0.86    1.00
  YS02001898YS02001901 CONDUIT    494.58     0  03:01      0.63    0.32    1.00
  YS02001901YS02001904 CONDUIT    494.93     0  03:01      0.63    0.77    1.00
  YS02001904YS02001907 CONDUIT    494.84     0  03:01      0.63    0.17    1.00
  YS02001887YS02001890 CONDUIT    495.46     0  03:00      0.63    0.85    1.00
  YS02001652YS02001649 CONDUIT    375.26     0  03:01      0.63    0.19    1.00
  YS02001655YS02001652 CONDUIT    374.20     0  03:01      0.98    0.18    1.00
  YS02001658YS02001655 CONDUIT    373.75     0  03:01      1.22    0.16    1.00
  YS02001661YS02001658 CONDUIT    608.14     0  02:23      1.55    0.24    1.00
  YS02001664YS02001661 CONDUIT    644.57     0  02:36      1.43    0.20    0.76
  YSB1154YSB6556       CONDUIT     25.82     0  03:01      0.17    0.05    0.59
  YSB1174YSB1171       CONDUIT     20.15     0  03:01      0.07    0.03    0.70
  YSB1171HS02004479    CONDUIT     44.92     0  03:02      0.54    0.03    0.55
  HS02004881HS02006253 CONDUIT     84.16     0  03:01      2.08    0.02    0.53
  YS02001793JiankangQianchi CONDUIT   1164.70     0  02:55     16.65    0.09    1.00
  YS02001757CaochengTiaoxuchi CONDUIT   1579.91     0  02:35      2.03    0.69    1.00
  WSF200WS02003060     CONDUIT    829.53     0  03:05      1.85    0.18    0.42
  1                    CONDUIT   1223.68     0  03:08      3.51    0.43    0.46
  CC-Pump-1            PUMP       200.00     0  03:00              1.00
  CC-Pump-2            PUMP       200.00     0  07:30              1.00
  JK-Pump-1            PUMP       300.00     0  00:00              1.00
  JK-Pump-2            PUMP       683.00     0  02:30              1.00
  XR-Pump-1            PUMP        95.00     0  00:00              1.00
  XR-Pump-2            PUMP        95.00     0  00:00              1.00
  XR-Pump-3            PUMP        95.00     0  00:00              1.00
  XR-Pump-4            PUMP        95.00     0  00:00              1.00
  
  
  ***************************
  Flow Classification Summary
  ***************************
  
  -------------------------------------------------------------------------------------
                      Adjusted    ---------- Fraction of Time in Flow Class ---------- 
                       /Actual         Up    Down  Sub   Sup   Up    Down  Norm  Inlet 
  Conduit               Length    Dry  Dry   Dry   Crit  Crit  Crit  Crit  Ltd   Ctrl  
  -------------------------------------------------------------------------------------
  WS02003066WSF200        1.00   0.01  0.02  0.00  0.00  0.97  0.00  0.00  0.59  0.00
  WS02006287WS02006284    1.00   0.03  0.01  0.00  0.64  0.33  0.00  0.00  0.62  0.00
  WS02006284WS02006280    1.00   0.03  0.00  0.00  0.00  0.00  0.00  0.97  0.00  0.00
  WS02006280WS02006229    1.00   0.03  0.00  0.00  0.00  0.01  0.00  0.95  0.02  0.00
  WS02006229WS02006228    1.00   0.00  0.00  0.00  1.00  0.00  0.00  0.00  0.00  0.00
  WS02006256WS02006235    1.00   0.00  0.00  0.00  1.00  0.00  0.00  0.00  0.00  0.00
  WS02006253WS02006251    1.00   0.01  0.01  0.00  0.97  0.00  0.00  0.00  0.00  0.00
  WS02006252WS02006251    1.00   0.16  0.00  0.00  0.07  0.00  0.77  0.00  0.00  0.00
  WS02006251WS02006249    1.00   0.00  0.00  0.00  1.00  0.00  0.00  0.00  0.20  0.00
  WS02006249WS02006248    1.00   0.00  0.01  0.00  0.93  0.00  0.07  0.00  0.00  0.00
  WS02006248WS02006247    1.00   0.01  0.00  0.00  0.99  0.00  0.00  0.00  0.13  0.00
  WS02006247WS02006245    1.00   0.00  0.00  0.00  1.00  0.00  0.00  0.00  0.00  0.00
  WS02006245WS02006243    1.00   0.00  0.00  0.00  0.97  0.00  0.00  0.03  0.00  0.00
  WS02006243WS02006242    1.00   0.00  0.00  0.00  1.00  0.00  0.00  0.00  0.20  0.00
  WS02006242WS02006240    1.00   0.00  0.00  0.00  1.00  0.00  0.00  0.00  0.00  0.00
  WS02006240WS02006239    1.00   0.00  0.00  0.00  0.96  0.00  0.00  0.04  0.01  0.00
  WS02006239WS02006238    1.00   0.00  0.00  0.00  1.00  0.00  0.00  0.00  0.12  0.00
  WS02006238WS02006235    1.00   0.00  0.00  0.00  1.00  0.00  0.00  0.00  0.00  0.00
  WS02006235WS02006234    1.00   0.00  0.00  0.00  0.97  0.00  0.03  0.00  0.00  0.00
  WS02006234WS02006232    1.00   0.00  0.00  0.00  1.00  0.00  0.00  0.00  0.08  0.00
  WS02006232WS02006231    1.00   0.00  0.00  0.00  1.00  0.00  0.00  0.00  0.00  0.00
  WS02006231WS02006230    1.00   0.00  0.00  0.00  0.80  0.00  0.20  0.00  0.00  0.00
  WS02006230WS02006229    1.00   0.00  0.00  0.00  1.00  0.00  0.00  0.00  0.00  0.00
  WS02006228WS02006109    1.00   0.00  0.00  0.00  1.00  0.00  0.00  0.00  0.00  0.00
  WS02006116WS02004401    1.00   0.01  0.00  0.00  0.99  0.00  0.00  0.00  0.00  0.00
  WS02006115WS02006116    1.00   0.01  0.00  0.00  0.99  0.00  0.00  0.00  0.00  0.00
  WS02006113WS02006111    1.00   0.01  0.00  0.00  0.02  0.97  0.00  0.00  0.14  0.00
  WS02006112WS02006115    1.00   0.01  0.00  0.00  0.99  0.00  0.00  0.00  0.00  0.00
  WS02006111WS02006112    1.00   0.01  0.00  0.00  0.99  0.00  0.00  0.00  0.90  0.00
  WS02006110WS02006113    1.00   0.00  0.00  0.00  0.99  0.00  0.00  0.00  0.00  0.00
  WS02006109WS02006110    1.00   0.00  0.00  0.00  1.00  0.00  0.00  0.00  0.00  0.00
  WS02004411WS02004412    1.00   0.01  0.00  0.00  0.99  0.00  0.00  0.00  0.00  0.00
  WS02004401WS02004402    1.00   0.01  0.00  0.00  0.99  0.00  0.00  0.00  0.00  0.00
  WS02004413WS02003067    1.00   0.02  0.01  0.00  0.00  0.00  0.98  0.00  0.00  0.00
  WS02004412WS02004413    1.00   0.02  0.00  0.00  0.98  0.00  0.00  0.00  0.01  0.00
  WS02004410WS02004411    1.00   0.01  0.00  0.00  0.99  0.00  0.00  0.00  0.00  0.00
  WS02004409WS02004410    1.00   0.01  0.00  0.00  0.99  0.00  0.00  0.00  0.02  0.00
  WS02004407WS02004409    1.00   0.01  0.00  0.00  0.98  0.00  0.00  0.00  0.95  0.00
  WS02004406WS02004407    1.00   0.00  0.01  0.00  0.99  0.00  0.00  0.00  0.00  0.00
  WS02004405WS02004406    1.00   0.00  0.00  0.00  1.00  0.00  0.00  0.00  0.00  0.00
  WS02004404WS02004405    1.00   0.00  0.00  0.00  1.00  0.00  0.00  0.00  0.00  0.00
  WS02004403WS02004404    1.00   0.00  0.01  0.00  0.99  0.00  0.00  0.00  0.00  0.00
  WS02004402WS02004403    1.00   0.01  0.00  0.00  0.99  0.00  0.00  0.00  0.00  0.00
  WS02004139WS02001211    1.00   0.00  0.00  0.00  1.00  0.00  0.00  0.00  0.00  0.00
  WS02004138WS02004139    1.00   0.00  0.00  0.00  1.00  0.00  0.00  0.00  1.00  0.00
  WS02003067WS02003066    1.00   0.02  0.00  0.00  0.98  0.00  0.00  0.00  0.00  0.00
  WS02001213WS02003059    1.00   0.00  0.00  0.00  1.00  0.00  0.00  0.00  0.00  0.00
  WS02001212WS02001213    1.00   0.00  0.00  0.00  0.94  0.00  0.06  0.00  0.00  0.00
  WS02001211WS02001212    1.00   0.00  0.00  0.00  1.00  0.00  0.00  0.00  0.00  0.00
  WS02003072WS02003073    1.00   0.00  0.00  0.00  0.00  0.00  0.00  1.00  0.00  0.00
  WS02003069WS02003072    1.00   0.00  0.00  0.00  1.00  0.00  0.00  0.00  0.11  0.00
  WS02003060WS02003069    1.00   0.00  0.00  0.00  0.99  0.01  0.00  0.00  0.08  0.00
  WS02003059WS02003060    1.00   0.00  0.00  0.00  1.00  0.00  0.00  0.00  0.01  0.00
  HS02004901HS02004770    1.00   0.03  0.00  0.00  0.97  0.00  0.00  0.00  0.00  0.00
  HS02004876HS02004881    1.00   0.01  0.00  0.00  0.93  0.06  0.00  0.00  0.00  0.00
  HS02004870HS02004876    1.00   0.00  0.00  0.00  1.00  0.00  0.00  0.00  0.95  0.00
  HS02004842HS02004848    1.00   0.00  0.03  0.00  0.97  0.00  0.00  0.00  0.55  0.00
  HS02004837HS02004842    1.00   0.00  0.00  0.00  1.00  0.00  0.00  0.00  0.11  0.00
  HS02004830HS02004837    1.00   0.00  0.00  0.00  1.00  0.00  0.00  0.00  0.99  0.00
  HS02004824HS02004830    1.00   0.00  0.00  0.00  1.00  0.00  0.00  0.00  0.00  0.00
  HS02004817HS02004824    1.00   0.00  0.00  0.00  1.00  0.00  0.00  0.00  1.00  0.00
  HS02004770HS02004777    1.00   0.00  0.03  0.00  0.97  0.00  0.00  0.00  0.02  0.00
  HS02004799HS02004480    1.00   0.00  0.01  0.00  0.96  0.00  0.03  0.00  0.00  0.00
  HS02004792HS02004799    1.00   0.00  0.00  0.00  1.00  0.00  0.00  0.00  0.98  0.00
  HS02004788HS02004792    1.00   0.00  0.00  0.00  1.00  0.00  0.00  0.00  0.98  0.00
  HS02004785HS02004788    1.00   0.00  0.00  0.00  1.00  0.00  0.00  0.00  0.00  0.00
  HS02004777HS02004785    1.00   0.00  0.00  0.00  1.00  0.00  0.00  0.00  0.12  0.00
  HS02004480HS02004478    1.00   0.03  0.00  0.00  0.72  0.00  0.00  0.25  0.00  0.00
  HS02004479HS02004480    1.00   0.01  0.00  0.00  0.99  0.00  0.00  0.00  0.11  0.00
  HS02004862HS02004870    1.00   0.00  0.00  0.00  1.00  0.00  0.00  0.00  0.03  0.00
  HS02004848HS02004852    1.00   0.03  0.00  0.00  0.97  0.00  0.00  0.00  0.62  0.00
  HS02004856HS02004862    1.00   0.00  0.04  0.00  0.96  0.00  0.00  0.00  0.83  0.00
  HS02004852HS02004856    1.00   0.03  0.00  0.00  0.97  0.00  0.00  0.00  0.85  0.00
  HS02004802HS02004478    1.00   0.03  0.00  0.00  0.97  0.00  0.00  0.00  0.02  0.00
  HS02004478WS02006287    1.00   0.04  0.00  0.00  0.79  0.18  0.00  0.00  0.64  0.00
  HS02004817HS02004807    1.00   0.00  0.03  0.00  0.97  0.00  0.00  0.00  0.01  0.00
  HS02004807HS02004802    1.00   0.03  0.00  0.00  0.96  0.00  0.00  0.00  0.00  0.00
  YS02001759YS02001757    1.00   0.00  0.00  0.00  1.00  0.00  0.00  0.00  0.16  0.00
  YS02001762YS02001759    1.00   0.00  0.00  0.00  1.00  0.00  0.00  0.00  0.03  0.00
  YS02001765YS02001762    1.00   0.00  0.00  0.00  1.00  0.00  0.00  0.00  0.13  0.00
  YS02001770YS02001767    1.00   0.00  0.00  0.00  1.00  0.00  0.00  0.00  0.00  0.00
  YS02001774YS02001770    1.00   0.00  0.03  0.00  0.97  0.00  0.00  0.00  0.03  0.00
  YS02001779YS02001774    1.00   0.00  0.00  0.00  1.00  0.00  0.00  0.00  0.18  0.00
  YS02001649YS02001757    1.00   0.00  0.00  0.00  1.00  0.00  0.00  0.00  0.16  0.00
  YS02001767YS02001765    1.00   0.00  0.00  0.00  1.00  0.00  0.00  0.00  0.00  0.00
  YS02006561YS02001783    1.00   0.04  0.00  0.00  0.34  0.62  0.00  0.00  0.47  0.00
  YS02001783YS02001784    1.00   0.00  0.04  0.00  0.96  0.00  0.00  0.00  0.00  0.00
  YS02001784YS02001785    1.00   0.00  0.00  0.00  1.00  0.00  0.00  0.00  0.17  0.00
  YS02001788YS02001790    1.00   0.00  0.00  0.00  0.34  0.66  0.00  0.00  0.39  0.00
  YS02001790YS02001791    1.00   0.00  0.00  0.00  0.31  0.69  0.00  0.00  0.50  0.00
  YS02001791YS02001793    1.00   0.00  0.00  0.00  0.35  0.64  0.00  0.00  0.03  0.00
  YS02001910YS02001907    1.00   0.00  0.00  0.00  0.99  0.00  0.00  0.01  0.12  0.00
  YS02001786YS02001788    1.00   0.00  0.00  0.00  0.35  0.65  0.00  0.00  0.00  0.00
  YS02001915YS02001910    1.00   0.00  0.00  0.00  0.99  0.01  0.00  0.00  0.15  0.00
  YS02001918YS02001915    1.00   0.00  0.00  0.00  0.99  0.01  0.00  0.00  0.55  0.00
  YS02001923YS02001920    1.00   0.00  0.00  0.00  1.00  0.00  0.00  0.00  0.84  0.00
  YS02001926YS02001923    1.00   0.00  0.02  0.00  0.13  0.00  0.85  0.00  0.00  0.00
  YS02001929YS02001926    1.00   0.00  0.03  0.00  0.97  0.00  0.00  0.00  0.78  0.00
  YS02001920YS02001918    1.00   0.00  0.00  0.00  1.00  0.00  0.00  0.00  0.00  0.00
  YS02001629YS02163301    1.00   0.04  0.00  0.00  0.96  0.00  0.00  0.00  0.00  0.00
  YS02001619YS02001622    1.00   0.03  0.00  0.00  0.97  0.00  0.00  0.00  0.00  0.00
  YS02001622YS02001625    1.00   0.03  0.00  0.00  0.97  0.00  0.00  0.00  0.04  0.00
  YS02001625YS02001629    1.00   0.03  0.01  0.00  0.94  0.00  0.01  0.00  0.00  0.00
  YS02163301YS02001633    1.00   0.00  0.04  0.00  0.96  0.00  0.00  0.00  0.00  0.00
  YS02163601YS02164001    1.00   0.00  0.02  0.00  0.98  0.00  0.00  0.00  0.00  0.00
  YS02164001YS02001641    1.00   0.00  0.02  0.00  0.98  0.00  0.00  0.00  0.06  0.00
  YS02001641YS02001644    1.00   0.00  0.00  0.00  1.00  0.00  0.00  0.00  0.00  0.00
  YS02001647YS02001649    1.00   0.00  0.04  0.00  0.96  0.00  0.00  0.00  0.01  0.00
  YS02006553YS02006556    1.00   0.00  0.00  0.00  1.00  0.00  0.00  0.00  0.03  0.00
  YS02006556YS02006558    1.00   0.00  0.00  0.00  1.00  0.00  0.00  0.00  0.00  0.00
  YSB6556YSB1171          1.00   0.01  0.02  0.00  0.97  0.00  0.00  0.00  0.00  0.00
  YS02001907YS02006553    1.00   0.00  0.01  0.00  0.99  0.00  0.00  0.00  0.00  0.00
  YS02006558YS02006561    1.00   0.04  0.00  0.00  0.12  0.84  0.00  0.00  0.48  0.00
  YS02001633YS02163601    1.00   0.00  0.00  0.00  1.00  0.00  0.00  0.00  0.15  0.00
  YS02001644YS02001647    1.00   0.00  0.04  0.00  0.96  0.00  0.00  0.00  0.00  0.00
  YS02001745YS02001748    1.00   0.00  0.00  0.00  0.92  0.00  0.00  0.07  0.04  0.00
  YS02001748YS02001751    1.00   0.00  0.00  0.00  0.97  0.03  0.00  0.00  0.15  0.00
  YS02001751YS02001754    1.00   0.00  0.00  0.00  0.95  0.00  0.00  0.05  0.02  0.00
  YS02001754YS02001757    1.00   0.00  0.00  0.00  1.00  0.00  0.00  0.00  0.18  0.00
  YS02001882YS02001884    1.00   0.04  0.00  0.00  0.96  0.00  0.00  0.00  0.00  0.00
  YS02001884YS02001887    1.00   0.02  0.01  0.00  0.97  0.00  0.00  0.00  0.00  0.00
  YS02001890YS02001895    1.00   0.00  0.04  0.00  0.96  0.00  0.00  0.00  0.00  0.00
  YS02001895YS02001898    1.00   0.04  0.00  0.00  0.95  0.00  0.01  0.00  0.00  0.00
  YS02001898YS02001901    1.00   0.04  0.00  0.00  0.96  0.00  0.00  0.00  0.01  0.00
  YS02001901YS02001904    1.00   0.04  0.00  0.00  0.96  0.00  0.00  0.00  0.00  0.00
  YS02001904YS02001907    1.00   0.00  0.04  0.00  0.96  0.00  0.00  0.00  0.00  0.00
  YS02001887YS02001890    1.00   0.00  0.00  0.00  0.99  0.00  0.01  0.00  0.00  0.00
  YS02001652YS02001649    1.00   0.00  0.00  0.00  1.00  0.00  0.00  0.00  0.16  0.00
  YS02001655YS02001652    1.00   0.00  0.00  0.00  0.95  0.00  0.00  0.05  0.02  0.00
  YS02001658YS02001655    1.00   0.00  0.03  0.00  0.94  0.02  0.00  0.00  0.08  0.00
  YS02001661YS02001658    1.00   0.03  0.00  0.00  0.92  0.04  0.00  0.00  0.08  0.00
  YS02001664YS02001661    1.00   0.03  0.00  0.00  0.93  0.04  0.00  0.00  0.19  0.00
  YSB1154YSB6556          1.00   0.03  0.00  0.00  0.97  0.00  0.00  0.00  0.01  0.00
  YSB1174YSB1171          1.00   0.02  0.01  0.00  0.98  0.00  0.00  0.00  0.00  0.00
  YSB1171HS02004479       1.00   0.01  0.00  0.00  0.98  0.00  0.00  0.00  0.10  0.00
  HS02004881HS02006253    1.00   0.02  0.00  0.00  0.78  0.01  0.00  0.19  0.59  0.00
  YS02001793JiankangQianchi    1.00   0.00  0.00  0.00  0.65  0.35  0.00  0.00  0.41  0.00
  YS02001757CaochengTiaoxuchi    1.00   0.00  0.06  0.00  0.94  0.00  0.00  0.00  0.00  0.00
  WSF200WS02003060        1.00   0.00  0.01  0.00  0.99  0.00  0.00  0.00  0.34  0.00
  1                       1.00   0.00  0.00  0.00  0.00  1.00  0.00  0.00  0.51  0.00
  
  
  *************************
  Conduit Surcharge Summary
  *************************
  
  ----------------------------------------------------------------------------
                                                           Hours        Hours 
                         --------- Hours Full --------   Above Full   Capacity
  Conduit                Both Ends  Upstream  Dnstream   Normal Flow   Limited
  ----------------------------------------------------------------------------
  WS02006229WS02006228        4.34      4.44      4.34      5.20         4.34
  WS02006256WS02006235        6.13      6.13      6.88      4.59         0.01
  WS02006253WS02006251        1.55      1.55      1.66      0.01         0.01
  WS02006252WS02006251        1.02      1.02      1.80      1.34         0.01
  WS02006251WS02006249        1.58      1.58      1.72      0.67         0.61
  WS02006249WS02006248        1.60      1.61      1.72      4.18         0.01
  WS02006248WS02006247        1.70      1.70      2.05      0.01         0.01
  WS02006247WS02006245        2.03      2.14      2.03      4.45         1.99
  WS02006245WS02006243        2.12      2.12      2.29      0.54         0.54
  WS02006243WS02006242        2.39      2.39      3.28      0.01         0.01
  WS02006242WS02006240        3.15      3.15      3.46      1.51         0.01
  WS02006240WS02006239        3.20      3.21      3.38      0.89         0.69
  WS02006239WS02006238        3.57      3.58      3.77      0.97         0.76
  WS02006238WS02006235        3.75      3.75      3.91      0.01         0.02
  WS02006235WS02006234        3.17      3.17      3.68      6.06         0.01
  WS02006234WS02006232        3.53      3.53      4.19      0.41         0.41
  WS02006232WS02006231        1.80      1.80      4.19      0.55         0.01
  WS02006231WS02006230        1.16      1.16      1.88      6.19         0.01
[...]
  YS02001765YS02001762        5.84      5.84      5.87      0.01         0.01
  YS02001770YS02001767        5.81      5.81      5.81      0.19         0.74
  YS02001774YS02001770        5.80      5.80      5.86      0.01         0.01
  YS02001779YS02001774        5.67      5.67      5.86      0.01         0.01
  YS02001649YS02001757        5.88      5.88      5.97      0.01         0.01
  YS02001767YS02001765        5.81      5.81      5.84      0.01         0.01
  YS02006561YS02001783        0.57      0.57      1.12      0.01         0.01
  YS02001783YS02001784        1.05      1.12      1.05      1.34         1.00
  YS02001784YS02001785        0.80      1.05      0.80      2.40         0.80
  YS02001788YS02001790        0.59      0.59      1.38      0.01         0.01
  YS02001790YS02001791        1.38      1.38      1.47      0.90         0.60
  YS02001791YS02001793        1.47      1.47      1.97      0.01         0.01
  YS02001910YS02001907        1.07      1.07      1.75      0.01         0.01
  YS02001786YS02001788        0.59      0.80      0.59      1.97         0.59
  YS02001915YS02001910        0.81      0.81      1.07      0.01         0.01
  YS02001918YS02001915        0.57      0.57      0.81      0.01         0.01
  YS02001923YS02001920        0.42      0.42      0.60      0.01         0.01
  YS02001920YS02001918        0.57      0.57      0.60      0.01         0.01
  YS02001629YS02163301        5.80      5.80      5.81      0.01         0.01
  YS02001619YS02001622        5.47      5.47      5.50      0.01         0.01
  YS02001622YS02001625        5.50      5.50      5.76      0.01         0.01
  YS02001625YS02001629        5.48      5.48      5.76      0.01         0.01
  YS02163301YS02001633        5.81      5.81      5.84      0.01         0.01
  YS02163601YS02164001        5.83      5.83      5.87      0.01         0.01
  YS02164001YS02001641        5.83      5.83      5.85      0.01         0.03
  YS02001641YS02001644        5.85      5.85      5.85      1.53         1.57
  YS02001647YS02001649        5.75      5.75      5.88      0.01         0.01
  YS02006553YS02006556        1.35      1.35      1.84      0.01         0.01
  YS02006556YS02006558        1.54      1.54      1.92      0.01         0.01
  YS02001907YS02006553        2.40      2.40      2.63      0.01         0.01
  YS02006558YS02006561        0.71      1.31      0.71      2.24         0.71
  YS02001633YS02163601        5.83      5.83      5.87      0.01         0.01
  YS02001644YS02001647        5.75      5.75      5.85      0.01         0.01
  YS02001745YS02001748        0.01      0.01      5.30      0.01         0.01
  YS02001748YS02001751        5.35      5.35      5.49      0.01         0.01
  YS02001751YS02001754        5.49      5.49      5.69      0.01         0.01
  YS02001754YS02001757        5.74      5.74      5.97      0.01         0.01
  YS02001882YS02001884        0.84      0.84      0.87      0.01         0.01
  YS02001884YS02001887        0.94      0.94      0.97      0.01         0.01
  YS02001890YS02001895        0.80      0.80      1.10      0.01         0.01
  YS02001895YS02001898        0.79      0.79      0.80      0.01         0.01
  YS02001898YS02001901        0.81      0.81      0.92      0.01         0.01
  YS02001901YS02001904        0.89      0.89      0.92      0.01         0.01
  YS02001904YS02001907        0.89      0.89      1.86      0.01         0.01
  YS02001887YS02001890        1.01      1.01      1.05      0.01         0.01
  YS02001652YS02001649        5.76      5.76      5.88      0.01         0.01
  YS02001655YS02001652        5.50      5.50      5.73      0.01         0.01
  YS02001658YS02001655        5.33      5.33      5.50      0.01         0.01
  YS02001661YS02001658        0.19      0.19      5.33      0.01         0.01
  YS02001664YS02001661        0.01      0.01      1.28      0.01         0.01
  HS02004881HS02006253        0.01      0.01      0.50      0.01         0.01
  YS02001793JiankangQianchi        1.84      1.84      3.96      0.01         0.01
  YS02001757CaochengTiaoxuchi        5.21      5.21      5.97      0.01         0.01
  
  
  ***************
  Pumping Summary
  ***************
  
  ---------------------------------------------------------------------------------------------------------
                                                  Min       Avg       Max     Total     Power    % Time Off
                        Percent   Number of      Flow      Flow      Flow    Volume     Usage    Pump Curve
  Pump                 Utilized   Start-Ups       LPS       LPS       LPS  10^6 ltr     Kw-hr    Low   High
  ---------------------------------------------------------------------------------------------------------
  CC-Pump-1               63.83           1      0.00    181.03    200.00     3.180      2.77    0.0    0.0
  CC-Pump-2               27.65           6      0.00     96.99    200.00     0.900      1.13    0.0    0.0
  JK-Pump-1               63.84           4      0.00    226.71    300.00     4.030     63.10    0.0    0.0
  JK-Pump-2               53.19           4      0.00    418.21    683.00     6.420     89.77    0.0   97.2
  XR-Pump-1              100.00           1      0.00     94.10     95.00     2.622     27.78    0.0    0.0
  XR-Pump-2              100.00           1      0.00     93.69     95.00     2.565     26.51    0.0    0.0
  XR-Pump-3               95.74           3      0.00     93.89     95.00     2.451     23.89    0.0    0.0
  XR-Pump-4               95.74           3      0.00     93.89     95.00     2.451     23.89    0.0    0.0
  
  
  ***************************
  Link Pollutant Load Summary
  ***************************
  
  ------------------------------------------------------------------------------------------
                                 COD            SS            TN            TP         NH4-N
  Link                            kg            kg            kg            kg            kg
  ------------------------------------------------------------------------------------------
  WS02003066WSF200           820.165      1507.614        21.696         1.897        11.440
  WS02006287WS02006284       268.058       498.202         9.348         0.943         5.215
  WS02006284WS02006280       268.542       498.980         9.395         0.949         5.244
  WS02006280WS02006229       268.504       498.906         9.393         0.949         5.243
  WS02006229WS02006228       833.504      1531.812        21.460         1.840        11.234
  WS02006256WS02006235       210.743       385.887         4.645         0.361         2.349
  WS02006253WS02006251        51.095        98.527         1.137         0.085         0.564
  WS02006252WS02006251       333.171       602.477         6.913         0.490         3.385
  WS02006251WS02006249       376.066       686.293         7.895         0.565         3.876
  WS02006249WS02006248       368.848       672.980         7.744         0.554         3.802
  WS02006248WS02006247       368.225       671.907         7.731         0.553         3.795
  WS02006247WS02006245       367.388       670.413         7.712         0.552         3.786
  WS02006245WS02006243       366.446       668.802         7.689         0.550         3.775
  WS02006243WS02006242       365.316       666.793         7.667         0.549         3.764
  WS02006242WS02006240       364.263       664.934         7.646         0.547         3.754
  WS02006240WS02006239       363.729       663.970         7.640         0.547         3.752
  WS02006239WS02006238       363.686       663.716         7.665         0.551         3.769
  WS02006238WS02006235       363.470       663.145         7.674         0.552         3.775
  WS02006235WS02006234       570.791      1043.152        12.202         0.902         6.059
  WS02006234WS02006232       569.758      1041.309        12.184         0.901         6.051
  WS02006232WS02006231       568.713      1039.447        12.161         0.899         6.039
  WS02006231WS02006230       567.683      1037.601        12.140         0.898         6.029
  WS02006230WS02006229       566.191      1035.009        12.101         0.895         6.009
  WS02006228WS02006109       832.118      1529.358        21.427         1.838        11.217
  WS02006116WS02004401       839.441      1541.939        22.137         1.930        11.662
  WS02006115WS02006116       841.442      1545.480        22.189         1.934        11.689
  WS02006113WS02006111       836.657      1535.974        22.136         1.931        11.671
  WS02006112WS02006115       843.302      1548.761        22.243         1.939        11.718
  WS02006111WS02006112       835.877      1534.579        22.117         1.929        11.661
  WS02006110WS02006113       837.555      1537.552        22.163         1.933        11.685
  WS02006109WS02006110       839.110      1540.281        22.212         1.938        11.712
  WS02004411WS02004412       824.846      1515.883        21.838         1.910        11.517
  WS02004401WS02004402       837.598      1538.687        22.085         1.925        11.634
  WS02004413WS02003067       821.174      1509.418        21.720         1.899        11.453
  WS02004412WS02004413       823.050      1512.710        21.787         1.905        11.490
  WS02004410WS02004411       826.464      1518.746        21.882         1.914        11.540
  WS02004409WS02004410       828.105      1521.646        21.928         1.918        11.565
  WS02004407WS02004409       829.654      1524.391        21.967         1.921        11.585
  WS02004406WS02004407       830.313      1525.573        21.979         1.922        11.591
  WS02004405WS02004406       832.493      1529.409        22.049         1.928        11.629
  WS02004404WS02004405       834.363      1532.770        22.073         1.929        11.638
  WS02004403WS02004404       834.281      1532.823        21.993         1.918        11.585
  WS02004402WS02004403       835.794      1535.497        22.037         1.921        11.609
  WS02004139WS02001211      1416.713      2333.807       117.851        14.432        72.779
  WS02004138WS02004139      1423.188      2344.506       118.372        14.496        73.100
  WS02003067WS02003066       820.456      1508.134        21.704         1.898        11.445
  WS02001213WS02003059      1449.203      2385.051       121.190        14.853        74.876
  WS02001212WS02001213      1458.624      2400.524       121.977        14.950        75.362
  WS02001211WS02001212      1460.826      2404.105       122.171        14.974        75.482
  WS02003072WS02003073      2368.110      4049.470       152.781        17.993        92.517
  WS02003069WS02003072      2373.318      4058.011       153.202        18.045        92.777
  WS02003060WS02003069      2376.273      4063.072       153.366        18.063        92.875
  WS02003059WS02003060      1445.864      2379.482       120.937        14.823        74.720
  HS02004901HS02004770        10.270        19.477         0.195         0.015         0.091
  HS02004876HS02004881        37.317        72.578         0.843         0.062         0.416
  HS02004870HS02004876        28.160        54.628         0.678         0.051         0.338
  HS02004842HS02004848         5.466        10.276         0.115         0.008         0.053
  HS02004837HS02004842        10.072        17.582         0.584         0.067         0.347
  HS02004830HS02004837        65.640       112.705         4.557         0.546         2.785
  HS02004824HS02004830        66.391       113.908         4.628         0.555         2.830
  HS02004817HS02004824        88.207       156.977         5.083         0.584         3.051
  HS02004770HS02004777        39.295        75.466         0.819         0.055         0.377
  HS02004799HS02004480       131.410       245.370         3.680         0.335         1.933
  HS02004792HS02004799       119.085       220.662         3.497         0.327         1.853
  HS02004788HS02004792        68.395       126.856         2.388         0.235         1.309
  HS02004785HS02004788        40.733        77.760         0.969         0.074         0.471
  HS02004777HS02004785        40.059        76.666         0.909         0.067         0.434
  HS02004480HS02004478       165.951       312.593         4.244         0.375         2.196
  HS02004479HS02004480        38.147        72.976         0.884         0.079         0.462
  HS02004862HS02004870        21.016        40.117         0.536         0.043         0.270
  HS02004848HS02004852         8.057        15.279         0.167         0.011         0.077
  HS02004856HS02004862        14.072        27.340         0.284         0.019         0.133
  HS02004852HS02004856         8.064        15.290         0.167         0.011         0.077
  HS02004802HS02004478       102.889       186.891         5.163         0.576         3.055
  HS02004478WS02006287       268.256       498.537         9.364         0.945         5.225
  HS02004817HS02004807        86.891       154.864         4.957         0.568         2.973
  HS02004807HS02004802       103.115       187.245         5.195         0.580         3.076
  YS02001759YS02001757       334.000       606.556         6.719         0.464         3.284
  YS02001762YS02001759       160.582       292.659         3.438         0.241         1.703
  YS02001765YS02001762       160.754       293.414         3.462         0.244         1.717
  YS02001770YS02001767       160.224       293.782         3.258         0.214         1.582
  YS02001774YS02001770       180.068       346.476         3.484         0.230         1.683
  YS02001779YS02001774       179.050       344.393         3.571         0.244         1.745
  YS02001649YS02001757       304.731       544.294         6.128         0.425         2.943
  YS02001767YS02001765       161.398       294.967         3.490         0.246         1.733
  YS02006561YS02001783       958.209      1759.278        20.244         1.518        10.098
  YS02001783YS02001784       958.051      1759.011        20.239         1.517        10.095
  YS02001784YS02001785       965.347      1770.686        20.952         1.606        10.541
  YS02001788YS02001790       965.849      1771.467        21.022         1.616        10.586
  YS02001790YS02001791       966.824      1773.056        21.121         1.628        10.648
  YS02001791YS02001793       966.753      1772.908        21.117         1.628        10.645
  YS02001910YS02001907       329.996       598.889         8.222         0.641         4.247
  YS02001786YS02001788       965.521      1770.972        20.979         1.610        10.558
  YS02001915YS02001910       330.091       599.045         8.178         0.635         4.218
  YS02001918YS02001915       156.495       271.430         4.577         0.427         2.495
  YS02001923YS02001920       136.685       239.856         2.624         0.182         1.272
  YS02001926YS02001923       136.430       239.485         2.587         0.178         1.248
  YS02001929YS02001926       136.220       239.139         2.556         0.174         1.229
  YS02001920YS02001918       156.568       271.650         4.546         0.423         2.474
  YS02001629YS02163301       103.583       183.535         2.172         0.140         1.013
  YS02001619YS02001622       146.409       262.955         3.031         0.197         1.414
  YS02001622YS02001625       145.257       261.135         3.003         0.195         1.401
  YS02001625YS02001629       104.659       185.315         2.196         0.142         1.023
  YS02163301YS02001633       103.311       183.078         2.165         0.140         1.010
  YS02163601YS02164001       362.120       646.336         7.118         0.503         3.404
  YS02164001YS02001641       361.638       645.520         7.098         0.501         3.393
  YS02001641YS02001644       361.875       645.844         7.097         0.500         3.392
  YS02001647YS02001649       357.020       645.421         7.090         0.492         3.386
  YS02006553YS02006556       679.826      1243.142        14.648         1.124         7.380
  YS02006556YS02006558       679.741      1242.964        14.616         1.120         7.359
  YSB6556YSB1171              21.953        42.197         0.451         0.038         0.229
  YS02001907YS02006553       679.932      1243.370        14.662         1.126         7.389
  YS02006558YS02006561       958.218      1759.301        20.244         1.518        10.097
  YS02001633YS02163601       362.807       647.400         7.097         0.499         3.388
  YS02001644YS02001647       362.678       655.638         7.183         0.499         3.429
  YS02001745YS02001748       207.289       381.991         4.464         0.297         2.196
  YS02001748YS02001751       206.898       380.963         4.603         0.318         2.289
  YS02001751YS02001754       206.033       379.540         4.594         0.318         2.288
  YS02001754YS02001757       206.795       380.685         4.758         0.340         2.394
  YS02001882YS02001884         2.863         4.937         0.058         0.004         0.029
  YS02001884YS02001887         6.857        12.139         0.134         0.010         0.067
  YS02001890YS02001895       389.386       720.497         7.188         0.539         3.508
  YS02001895YS02001898       389.186       720.208         7.181         0.539         3.504
  YS02001898YS02001901       388.948       719.790         7.176         0.538         3.501
  YS02001901YS02001904       388.778       719.538         7.182         0.539         3.506
  YS02001904YS02001907       388.973       719.826         7.235         0.546         3.540
  YS02001887YS02001890       390.190       721.700         7.242         0.546         3.541
  YS02001652YS02001649       150.022       274.698         3.058         0.220         1.434
  YS02001655YS02001652       150.485       275.470         3.071         0.221         1.441
  YS02001658YS02001655       149.800       274.389         2.979         0.209         1.382
  YS02001661YS02001658       153.754       281.510         3.058         0.215         1.419
  YS02001664YS02001661       176.812       319.964         3.570         0.249         1.652
  YSB1154YSB6556              21.532        41.528         0.402         0.032         0.198
  YSB1174YSB1171              14.655        28.292         0.298         0.024         0.150
  YSB1171HS02004479           38.105        72.910         0.888         0.079         0.465
  HS02004881HS02006253        42.401        82.830         0.929         0.067         0.457
  YS02001793JiankangQianchi       967.172      1773.524        21.143         1.631        10.661
  YS02001757CaochengTiaoxuchi       575.849      1031.634        12.094         0.854         5.925
  WSF200WS02003060           819.701      1506.772        21.689         1.897        11.438
  1                         2373.775      4057.816       153.563        18.095        93.016
  CC-Pump-1                  261.249       472.735         5.416         0.384         2.652
  CC-Pump-2                   71.959       129.806         1.497         0.106         0.733
  JK-Pump-1                  269.881       498.214         5.754         0.438         2.884
  JK-Pump-2                  535.537       997.996        11.174         0.843         5.574
  XR-Pump-1                  379.933       624.780        31.899         3.912        19.715
  XR-Pump-2                  366.278       602.932        30.588         3.748        18.896
  XR-Pump-3                  340.332       561.420        28.098         3.437        17.340
  XR-Pump-4                  340.332       561.420        28.098         3.437        17.340
  

  Analysis begun on:  Wed Jul 14 09:37:40 2021
  Analysis ended on:  Wed Jul 14 09:37:44 2021
  Total elapsed time: 00:00:04