
  EPA STORM WATER MANAGEMENT MODEL - VERSION 5.1 (Build 5.3.0.dev0)
  --------------------------------------------------------------

  WARNING 04: minimum elevation drop used for Conduit WS02004404WS02004405
  WARNING 03: negative offset ignored for Link YS02001904YS02001907
  
  *********************************************************
  NOTE: The summary statistics displayed in this report are
  based on results found at every computational time step,  
  not just on results from each reporting time step.
  *********************************************************
  
  ****************
  Analysis Options
  ****************
  Flow Units ............... LPS
  Process Models:
    Rainfall/Runoff ........ YES
    RDII ................... NO
    Snowmelt ............... NO
    Groundwater ............ NO
    Flow Routing ........... YES
    Ponding Allowed ........ NO
    Water Quality .......... YES
  Infiltration Method ...... HORTON
  Flow Routing Method ...... DYNWAVE
  Surcharge Method ......... EXTRAN
  Starting Date ............ 08/28/2015 08:00:00
  Ending Date .............. 08/28/2015 15:50:00
  Antecedent Dry Days ...... 8.0
  Report Time Step ......... 00:01:00
  Wet Time Step ............ 00:01:00
  Dry Time Step ............ 00:01:00
  Routing Time Step ........ 5.00 sec
  Variable Time Step ....... YES
  Maximum Trials ........... 8
  Number of Threads ........ 4
  Head Tolerance ........... 0.001500 m
  
  
  **************************        Volume         Depth
  Runoff Quantity Continuity     hectare-m            mm
  **************************     ---------       -------
  Total Precipitation ......         5.556        12.164
  Evaporation Loss .........         0.000         0.000
  Infiltration Loss ........         1.002         2.194
  Surface Runoff ...........         3.688         8.075
  Final Storage ............         0.866         1.897
  Continuity Error (%) .....        -0.019
  
  
  **************************           COD            SS            TN            TP         NH4-N
  Runoff Quality Continuity             kg            kg            kg            kg            kg
  **************************    ----------    ----------    ----------    ----------    ----------
  Initial Buildup ..........     41378.656     70582.865      1804.177       168.684      1032.807
  Surface Buildup ..........        19.275        34.271         2.335         0.213         1.362
  Wet Deposition ...........         0.000         0.000         0.000         0.000         0.000
  Sweeping Removal .........         0.000         0.000         0.000         0.000         0.000
  Infiltration Loss ........        84.023       157.502         1.599         0.111         0.761
  BMP Removal ..............         0.000         0.000         0.000         0.000         0.000
  Surface Runoff ...........      3122.074      5752.154        60.620         4.098        28.771
  Remaining Buildup ........     38190.779     64705.500      1744.271       164.686      1004.628
  Continuity Error (%) .....         0.003         0.003         0.001         0.001         0.001
  
  
  **************************        Volume        Volume
  Flow Routing Continuity        hectare-m      10^6 ltr
  **************************     ---------     ---------
  Dry Weather Inflow .......         0.616         6.165
  Wet Weather Inflow .......         3.687        36.871
  Groundwater Inflow .......         0.000         0.000
  RDII Inflow ..............         0.000         0.000
  External Inflow ..........         0.102         1.024
  External Outflow .........         2.093        20.935
  Flooding Loss ............         1.908        19.076
  Evaporation Loss .........         0.000         0.000
  Exfiltration Loss ........         0.000         0.000
  Initial Stored Volume ....         0.076         0.761
  Final Stored Volume ......         0.609         6.091
  Continuity Error (%) .....        -2.862
  
  
  **************************           COD            SS            TN            TP         NH4-N
  Quality Routing Continuity            kg            kg            kg            kg            kg
  **************************    ----------    ----------    ----------    ----------    ----------
  Dry Weather Inflow .......      1541.201      2465.922       147.955        18.494        92.472
  Wet Weather Inflow .......      3121.341      5750.926        60.604         4.097        28.763
  Groundwater Inflow .......         0.000         0.000         0.000         0.000         0.000
  RDII Inflow ..............         0.000         0.000         0.000         0.000         0.000
  External Inflow ..........       183.418       293.469        17.608         2.201        11.005
  External Outflow .........      2414.097      4131.656       153.428        18.015        92.781
  Flooding Loss ............      1770.131      3250.097        46.481         4.093        24.543
  Exfiltration Loss ........         0.000         0.000         0.000         0.000         0.000
  Mass Reacted .............         0.000         0.000         0.000         0.000         0.000
  Initial Stored Mass ......         0.000         0.000         0.000         0.000         0.000
  Final Stored Mass ........       492.721       835.050        22.478         2.405        13.043
  Continuity Error (%) .....         3.488         3.449         1.672         1.127         1.417
  
  
  *************************
  Highest Continuity Errors
  *************************
  Node HS02004842 (14.53%)
  Node JK-storage (-12.63%)
  Node YS02001884 (12.07%)
  Node YSB1171 (2.74%)
  Node HS02004817 (2.73%)
  
  
  ***************************
  Time-Step Critical Elements
  ***************************
  Link WS02006252WS02006251 (59.93%)
  Link WS02006280WS02006229 (10.99%)
  Link WS02006238WS02006235 (6.17%)
  Link YS02001793JiankangQianchi (4.63%)
  Link WS02006235WS02006234 (3.44%)
  
  
  ********************************
  Highest Flow Instability Indexes
  ********************************
  Link YS02163601YS02164001 (39)
  Link YS02001619YS02001622 (39)
  Link YS02001629YS02163301 (39)
  Link WS02006113WS02006111 (39)
  Link YS02163301YS02001633 (38)
  
  
  *************************
  Routing Time Step Summary
  *************************
  Minimum Time Step           :     0.13 sec
  Average Time Step           :     1.14 sec
  Maximum Time Step           :     5.00 sec
  Percent in Steady State     :    -0.00
  Average Iterations per Step :     4.57
  Percent Not Converging      :    23.58
  
  
  ***************************
  Subcatchment Runoff Summary
  ***************************
  
  ------------------------------------------------------------------------------------------------------------------------------
                            Total      Total      Total      Total     Imperv       Perv      Total       Total     Peak  Runoff
                           Precip      Runon       Evap      Infil     Runoff     Runoff     Runoff      Runoff   Runoff   Coeff
  Subcatchment                 mm         mm         mm         mm         mm         mm         mm    10^6 ltr      LPS
  ------------------------------------------------------------------------------------------------------------------------------
  sub0                      12.16       0.00       0.00       0.65      11.27       0.20      11.47        0.01     1.99   0.943
  sub1                      12.16       0.00       0.00       1.12      10.73       0.22      10.95        0.07    14.96   0.900
  sub2                      12.16       0.00       0.00       4.23       7.58       0.27       7.85        0.07    15.08   0.646
  sub3                      12.16       0.00       0.00       4.29       7.54       0.21       7.75        0.17    34.61   0.637
  sub4                      12.16       0.00       0.00       1.19      10.57       0.14      10.71        0.22    42.34   0.881
  sub5                      12.16       0.00       0.00       0.69      11.21       0.16      11.38        0.13    26.18   0.935
  sub7                      12.16       0.00       0.00       0.88      11.01       0.22      11.22        0.04     7.95   0.923
  sub8                      12.16       0.00       0.00       0.89      11.00       0.21      11.20        0.07    14.89   0.921
  sub9                      12.16       0.00       0.00       0.89      10.99       0.21      11.20        0.05    11.18   0.921
  sub10                     12.16       0.00       0.00       0.79      11.10       0.18      11.28        0.12    25.49   0.928
  sub11                     12.16       0.00       0.00       0.78      11.12       0.19      11.31        0.13    27.35   0.930
  sub12                     12.16       0.00       0.00       1.27      10.53       0.31      10.85        0.09    20.52   0.892
  sub14                     12.16       0.00       0.00       0.89      10.99       0.20      11.20        0.11    22.08   0.920
  sub15                     12.16       0.00       0.00       3.28       8.45       0.37       8.82        0.15    32.49   0.725
  sub16                     12.16       0.00       0.00       3.51       8.11       0.50       8.61        0.09    20.36   0.708
  sub17                     12.16       0.00       0.00       3.41       8.23       0.48       8.71        0.07    16.72   0.716
  sub22                     12.16       0.00       0.00       4.80       6.89       0.43       7.32        0.46   102.62   0.602
  sub23                     12.16       0.00       0.00       4.05       7.62       0.45       8.07        0.38    85.35   0.663
  sub60                     12.16       0.00       0.00       1.42       8.82       0.04       8.86        2.69   336.84   0.729
  sub61                     12.16       0.00       0.00       2.01       8.94       0.06       9.00        2.78   399.45   0.740
  sub62                     12.16       0.00       0.00       0.92       9.73       0.05       9.78        3.01   415.79   0.804
  sub63                     12.16       0.00       0.00       3.46       7.82       0.06       7.88        2.39   361.21   0.648
  sub64                     12.16       0.00       0.00       1.78       8.47       0.04       8.51        2.59   320.97   0.699
  sub65                     12.16       0.00       0.00       1.54       8.61       0.04       8.65        2.66   326.54   0.711
  sub66                     12.16       0.00       0.00       3.49       7.26       0.04       7.30        2.24   290.53   0.600
  sub67                     12.16       0.00       0.00       0.91      10.24       0.07      10.31        3.18   494.23   0.848
  sub68                     12.16       0.00       0.00       1.64       9.40       0.06       9.46        2.91   432.52   0.778
  sub69                     12.16       0.00       0.00       1.73       9.72       0.09       9.82        2.29   383.95   0.807
  sub70                     12.16      10.02       0.00       6.98      13.09       0.56      13.65        3.12   394.93   0.615
  sub71                     12.16       0.00       0.00       0.93       9.48       0.05       9.53        2.25   296.34   0.783
  sub72                     12.16       0.00       0.00       0.83       7.62       0.02       7.64        1.56   151.13   0.628
  1                         12.16      13.29       0.00       1.37      14.64       3.94      18.57        4.36   399.24   0.730
  2                         12.16       0.00       0.00       3.02       2.89       1.65       4.55        1.82   245.52   0.374
  
  
  ****************************
  Subcatchment Washoff Summary
  ****************************
  
  ------------------------------------------------------------------------------------------
                                 COD            SS            TN            TP         NH4-N
  Subcatchment                    kg            kg            kg            kg            kg
  ------------------------------------------------------------------------------------------
  sub0                         2.176         4.147         0.037         0.003         0.018
  sub1                         9.268        18.138         0.173         0.012         0.083
  sub2                         5.563        10.570         0.119         0.008         0.054
  sub3                        13.747        25.918         0.288         0.019         0.132
  sub4                        21.530        42.606         0.429         0.026         0.205
  sub5                        21.300        41.103         0.378         0.029         0.183
  sub7                         4.748         9.424         0.090         0.006         0.043
  sub8                         7.142        14.500         0.143         0.008         0.069
  sub9                         6.100        12.212         0.118         0.007         0.057
  sub10                       17.532        34.266         0.321         0.023         0.155
  sub11                       17.086        33.770         0.320         0.022         0.154
  sub12                       14.392        27.890         0.260         0.019         0.125
  sub14                       13.021        25.823         0.247         0.016         0.119
  sub15                       16.182        30.744         0.313         0.023         0.146
  sub16                       10.318        19.555         0.197         0.015         0.092
  sub17                        9.471        17.789         0.175         0.014         0.082
  sub22                       48.821        90.813         0.932         0.070         0.434
  sub23                       29.138        56.181         0.627         0.041         0.287
  sub60                      203.703       376.194         4.083         0.248         1.956
  sub61                      251.300       461.579         4.699         0.320         2.261
  sub62                      262.762       491.326         5.157         0.324         2.474
  sub63                      185.047       334.594         3.739         0.261         1.731
  sub64                      253.867       452.095         4.687         0.339         2.235
  sub65                      260.106       465.192         4.834         0.344         2.309
  sub66                      146.558       263.078         3.037         0.197         1.417
  sub67                      388.205       718.566         6.963         0.510         3.363
  sub68                      276.714       513.393         5.318         0.356         2.539
  sub69                      247.676       464.012         4.658         0.325         2.225
  sub70                      413.256       778.342         8.287         0.572         3.877
  sub71                      173.740       327.842         3.597         0.206         1.720
  sub72                      136.329       239.316         2.558         0.174         1.230
  1                          280.724       531.718         5.751         0.398         2.660
  2                           35.485        61.812         1.030         0.062         0.437
  ------------------------------------------------------------------------------------------
  System                    3783.006      6994.507        73.566         4.996        34.873
  
  
  ******************
  Node Depth Summary
  ******************
  
  ---------------------------------------------------------------------------------
                                 Average  Maximum  Maximum  Time of Max    Reported
                                   Depth    Depth      HGL   Occurrence   Max Depth
  Node                 Type       Meters   Meters   Meters  days hr:min      Meters
  ---------------------------------------------------------------------------------
  WS02001211           JUNCTION     0.78     0.83     5.67     0  03:08        0.83
  WS02001212           JUNCTION     0.49     0.56     5.62     0  03:08        0.56
  WS02001213           JUNCTION     0.73     0.83     5.59     0  03:07        0.83
  WS02003069           JUNCTION     0.54     0.68     5.27     0  03:07        0.68
  WS02003072           JUNCTION     0.60     0.73     5.10     0  03:07        0.73
  WS02003073           JUNCTION     0.37     0.46     4.52     0  03:08        0.46
  WS02003060           JUNCTION     0.48     0.60     5.53     0  03:06        0.60
  WS02003066           JUNCTION     0.27     0.36     5.92     0  03:05        0.36
  WS02003059           JUNCTION     0.78     0.88     5.57     0  03:07        0.88
  WS02003067           JUNCTION     0.64     0.79     6.11     0  03:04        0.79
  WS02004401           JUNCTION     0.77     1.14     7.14     0  03:03        1.13
  WS02004402           JUNCTION     0.80     1.14     7.10     0  03:02        1.14
  WS02004403           JUNCTION     0.82     1.13     7.06     0  03:00        1.12
  WS02004404           JUNCTION     0.89     1.18     7.03     0  03:03        1.17
  WS02004406           JUNCTION     0.89     1.12     6.95     0  03:03        1.11
  WS02004409           JUNCTION     0.59     0.87     6.64     0  03:04        0.87
  WS02004410           JUNCTION     0.60     0.87     6.59     0  03:04        0.87
  WS02004411           JUNCTION     0.61     0.86     6.54     0  03:04        0.86
  WS02004412           JUNCTION     0.63     0.85     6.49     0  03:04        0.85
  WS02004413           JUNCTION     0.78     0.98     6.45     0  03:04        0.98
  WS02004405           JUNCTION     0.88     1.16     7.01     0  03:03        1.16
  WS02006109           JUNCTION     0.86     1.31     7.93     0  03:02        1.30
  WS02006110           JUNCTION     0.84     1.15     7.74     0  03:02        1.14
  WS02006111           JUNCTION     0.26     0.65     7.36     0  03:03        0.65
  WS02006112           JUNCTION     0.95     1.42     7.30     0  03:02        1.42
  WS02006113           JUNCTION     0.40     0.65     7.54     0  03:02        0.65
  WS02006115           JUNCTION     0.67     1.09     7.23     0  03:02        1.09
  WS02006116           JUNCTION     0.75     1.14     7.18     0  03:03        1.14
  WS02006230           JUNCTION     0.90     1.52     8.27     0  03:02        1.52
  WS02006231           JUNCTION     0.63     1.22     8.34     0  03:02        1.20
  WS02006232           JUNCTION     0.78     1.37     8.41     0  03:02        1.36
  WS02006234           JUNCTION     0.73     1.32     8.47     0  03:02        1.32
  WS02006235           JUNCTION     0.78     1.37     8.53     0  03:02        1.35
  WS02006238           JUNCTION     0.81     1.39     8.53     0  03:01        1.39
  WS02006240           JUNCTION     0.72     1.28     8.57     0  03:00        1.28
  WS02006242           JUNCTION     0.78     1.33     8.60     0  03:00        1.33
  WS02006243           JUNCTION     0.66     1.21     8.63     0  02:59        1.21
  WS02006245           JUNCTION     0.64     1.17     8.65     0  03:03        1.16
  WS02006247           JUNCTION     0.65     1.17     8.67     0  03:03        1.16
  WS02006248           JUNCTION     0.59     1.09     8.68     0  02:57        1.09
  WS02006249           JUNCTION     0.61     1.09     8.69     0  02:56        1.09
  WS02006239           JUNCTION     0.77     1.35     8.56     0  03:02        1.34
  WS02006251           JUNCTION     0.59     2.02     9.69     0  02:56        1.17
  WS02006252           JUNCTION     0.37     1.50     9.74     0  02:56        0.72
  WS02006253           JUNCTION     0.62     2.43    10.07     0  02:56        1.19
  WS02006256           JUNCTION     1.80     2.35     9.28     0  00:00        2.35
  WS02004138           JUNCTION     0.19     0.20     7.45     0  00:00        0.19
  WS02004139           JUNCTION     0.72     0.77     5.68     0  03:08        0.77
  WS02004407           JUNCTION     0.26     0.37     6.68     0  03:03        0.37
  WS02006228           JUNCTION     0.88     1.44     8.09     0  03:02        1.43
  WS02006229           JUNCTION     0.87     1.49     8.18     0  03:02        1.48
  WS02006280           JUNCTION     0.07     0.20     8.47     0  03:02        0.20
  WS02006284           JUNCTION     0.37     0.56     8.96     0  03:02        0.56
  WS02006287           JUNCTION     0.10     0.30     9.25     0  03:01        0.30
  WSF200               JUNCTION     0.26     0.40     5.64     0  03:04        0.40
  HS02004901           JUNCTION     0.12     0.29    10.12     0  03:01        0.29
  HS02004881           JUNCTION     0.01     0.05     9.08     0  02:56        0.04
  HS02004876           JUNCTION     0.04     0.12     9.15     0  02:57        0.12
  HS02004870           JUNCTION     0.01     0.07     9.35     0  03:01        0.07
  HS02004862           JUNCTION     0.02     0.08     9.46     0  03:01        0.08
  HS02004856           JUNCTION     0.08     0.13     9.55     0  03:01        0.13
  HS02004852           JUNCTION     0.01     0.05     9.56     0  03:01        0.05
  HS02004848           JUNCTION     0.01     0.05     9.65     0  03:01        0.05
  HS02004842           JUNCTION     0.33     0.38     9.65     0  03:01        0.38
  HS02004837           JUNCTION     0.03     0.07     9.65     0  03:01        0.07
  HS02004830           JUNCTION     0.04     0.08     9.55     0  03:01        0.08
  HS02004824           JUNCTION     0.02     0.06     9.47     0  03:01        0.06
  HS02004817           JUNCTION     0.44     0.61     9.45     0  03:01        0.61
  HS02004807           JUNCTION     0.12     0.28     9.45     0  03:01        0.28
  HS02004802           JUNCTION     0.16     0.31     9.44     0  03:01        0.31
  HS02004799           JUNCTION     0.12     0.35     9.56     0  03:01        0.35
  HS02004792           JUNCTION     0.03     0.15     9.67     0  03:01        0.15
  HS02004788           JUNCTION     0.03     0.11    10.01     0  03:01        0.11
  HS02004785           JUNCTION     0.04     0.18    10.09     0  03:01        0.18
  HS02004777           JUNCTION     0.15     0.31    10.11     0  03:01        0.31
  HS02004770           JUNCTION     0.12     0.29    10.12     0  03:01        0.29
  HS02004480           JUNCTION     0.08     0.28     9.52     0  03:01        0.28
  HS02004479           JUNCTION     0.11     0.32     9.52     0  03:01        0.32
  HS02004478           JUNCTION     0.06     0.20     9.42     0  03:01        0.20
  YS02001745           JUNCTION     0.72     0.91     8.43     0  03:00        0.91
  YS02001748           JUNCTION     1.12     1.59     8.67     0  02:27        1.34
  YS02001751           JUNCTION     1.31     1.71     8.59     0  02:27        1.54
  YS02001754           JUNCTION     1.56     1.84     8.45     0  02:27        1.80
  YS02001762           JUNCTION     1.76     2.04     8.44     0  02:50        2.02
  YS02001765           JUNCTION     1.71     1.98     8.43     0  02:54        1.96
  YS02001767           JUNCTION     1.68     1.94     8.43     0  02:54        1.93
  YS02001770           JUNCTION     1.67     1.92     8.41     0  02:54        1.91
  YS02001774           JUNCTION     1.74     1.98     8.40     0  02:56        1.97
  YS02001779           JUNCTION     1.49     1.68     8.37     0  02:27        1.68
  YS02001882           JUNCTION     0.52     1.62     8.33     0  03:00        1.61
  YS02001884           JUNCTION     0.61     1.72     8.34     0  02:58        1.71
  YS02001759           JUNCTION     1.80     2.08     8.44     0  02:50        2.05
  YS02001887           JUNCTION     0.69     1.80     8.33     0  02:59        1.79
  YS02001890           JUNCTION     0.72     1.81     8.32     0  02:54        1.81
  YS02001898           JUNCTION     0.49     1.56     8.29     0  03:01        1.55
  YS02001901           JUNCTION     0.61     1.67     8.28     0  03:00        1.67
  YS02001904           JUNCTION     0.58     1.64     8.27     0  03:18        1.63
  YS02001907           JUNCTION     0.91     1.96     8.25     0  02:44        1.96
  YS02001910           JUNCTION     0.70     1.78     8.29     0  02:46        1.76
  YS02001915           JUNCTION     0.50     1.58     8.30     0  02:46        1.57
  YS02001918           JUNCTION     0.25     1.26     8.33     0  02:45        1.23
  YS02001619           JUNCTION     1.27     1.61     8.54     0  02:27        1.50
  YS02001629           JUNCTION     1.63     1.85     8.40     0  02:27        1.84
  YS02001641           JUNCTION     1.73     1.93     8.37     0  02:59        1.93
  YS02001644           JUNCTION     1.73     1.92     8.35     0  02:35        1.92
  YS02001652           JUNCTION     1.57     2.09     8.68     0  02:52        1.94
  YS02001655           JUNCTION     1.34     2.07     8.92     0  02:52        1.77
  YS02001920           JUNCTION     0.35     1.34     8.35     0  02:45        1.30
  YS02001923           JUNCTION     0.19     1.10     8.36     0  02:45        1.06
  YS02001926           JUNCTION     0.26     0.92     8.36     0  02:45        0.91
  YS02001929           JUNCTION     0.15     0.68     8.38     0  02:46        0.66
  YS02001658           JUNCTION     1.07     2.02     9.16     0  02:52        1.56
  YS02001661           JUNCTION     0.83     2.23     9.63     0  03:56        1.39
  YS02001664           JUNCTION     0.36     0.58     8.51     0  03:58        0.57
  YS02001622           JUNCTION     1.29     1.62     8.52     0  02:27        1.51
  YS02001633           JUNCTION     1.72     1.95     8.40     0  02:35        1.94
  YS02001649           JUNCTION     1.77     2.05     8.44     0  02:37        2.05
  YS02001757           JUNCTION     1.89     2.18     8.44     0  03:37        2.16
  YS02001895           JUNCTION     0.48     1.56     8.31     0  03:00        1.56
  YS02001625           JUNCTION     1.58     1.78     8.38     0  02:27        1.78
  YS02163301           JUNCTION     1.66     1.90     8.42     0  02:27        1.88
  YS02163601           JUNCTION     1.77     1.99     8.39     0  02:35        1.98
  YS02164001           JUNCTION     1.71     1.92     8.38     0  02:35        1.91
  YS02001647           JUNCTION     1.56     1.81     8.42     0  03:58        1.79
  YSB1154              JUNCTION     0.26     0.47     9.52     0  03:01        0.47
  YSB6556              JUNCTION     0.15     0.35     9.52     0  03:01        0.35
  YSB1174              JUNCTION     0.21     0.41     9.52     0  03:01        0.41
  YSB1171              JUNCTION     0.41     0.62     9.52     0  03:01        0.62
  YS02006553           JUNCTION     0.92     1.96     8.25     0  02:55        1.96
  YS02006561           JUNCTION     0.29     1.08     7.74     0  02:49        1.07
  YS02006556           JUNCTION     0.88     1.92     8.23     0  02:55        1.91
  YS02006558           JUNCTION     0.93     1.96     8.23     0  02:59        1.95
  YS02001783           JUNCTION     0.49     1.47     7.61     0  02:44        1.47
  YS02001784           JUNCTION     0.52     1.48     7.55     0  02:34        1.40
  YS02001786           JUNCTION     0.46     1.57     7.60     0  02:34        1.25
  YS02001788           JUNCTION     0.39     1.59     7.57     0  02:34        1.12
  YS02001790           JUNCTION     0.51     1.96     7.60     0  04:37        1.29
  YS02001791           JUNCTION     0.47     2.72     8.19     0  04:36        1.27
  YS02001793           JUNCTION     0.64     3.16     7.99     0  04:34        1.82
  WSC                  OUTFALL      0.37     0.46     1.13     0  03:08        0.46
  JK-storage           STORAGE      2.61     5.80     6.60     0  02:34        5.80
  CC-storage           STORAGE      1.15     1.39     8.39     0  03:34        1.39
  XR-storage           STORAGE      6.62     7.72     5.72     0  02:55        7.72
  
  
  *******************
  Node Inflow Summary
  *******************
  
  -------------------------------------------------------------------------------------------------
                                  Maximum  Maximum                  Lateral       Total        Flow
                                  Lateral    Total  Time of Max      Inflow      Inflow     Balance
                                   Inflow   Inflow   Occurrence      Volume      Volume       Error
  Node                 Type           LPS      LPS  days hr:min    10^6 ltr    10^6 ltr     Percent
  -------------------------------------------------------------------------------------------------
  WS02001211           JUNCTION      7.35   389.62     0  03:34       0.207        10.1       0.409
  WS02001212           JUNCTION      0.00   391.76     0  03:33           0          10       0.252
  WS02001213           JUNCTION      0.00   393.68     0  03:33           0          10       0.293
  WS02003069           JUNCTION      0.32  1224.37     0  03:06     0.00902          21       0.181
  WS02003072           JUNCTION      0.00  1224.27     0  03:07           0          21       0.214
  WS02003073           JUNCTION      1.82  1226.21     0  03:07      0.0514          21       0.252
  WS02003060           JUNCTION     16.53  1223.92     0  03:06       0.466          21       0.168
  WS02003066           JUNCTION      0.00   829.86     0  03:05           0        10.6       0.047
  WS02003059           JUNCTION      0.00   396.46     0  07:47           0        9.99       0.414
  WS02003067           JUNCTION      0.00   829.74     0  03:04           0        10.7       0.095
  WS02004401           JUNCTION      0.00   831.46     0  03:02           0        10.9       0.202
  WS02004402           JUNCTION      0.00   831.82     0  03:03           0        10.9       0.189
  WS02004403           JUNCTION      0.00   833.01     0  03:02           0        10.9       0.172
  WS02004404           JUNCTION      0.16   832.31     0  03:02     0.00457        10.8       0.131
  WS02004406           JUNCTION      0.00   831.77     0  03:03           0        10.8       0.317
  WS02004409           JUNCTION      0.00   830.82     0  03:03           0        10.8       0.168
  WS02004410           JUNCTION      0.00   830.13     0  03:03           0        10.8       0.191
  WS02004411           JUNCTION      0.00   829.83     0  03:04           0        10.7       0.195
  WS02004412           JUNCTION      0.00   829.72     0  03:04           0        10.7       0.209
  WS02004413           JUNCTION      0.00   829.71     0  03:04           0        10.7       0.306
  WS02004405           JUNCTION      0.04   832.81     0  03:03     0.00107        10.8       0.193
  WS02006109           JUNCTION      1.23   818.28     0  03:02      0.0347        10.9       0.188
  WS02006110           JUNCTION      0.00   818.24     0  03:02           0        10.9       0.167
  WS02006111           JUNCTION      0.00   817.83     0  03:03           0        10.9       0.037
  WS02006112           JUNCTION     16.72   831.19     0  03:02      0.0747          11       0.280
  WS02006113           JUNCTION      0.00   818.29     0  03:02           0        10.9       0.086
  WS02006115           JUNCTION      0.00   831.33     0  03:02           0        10.9       0.194
  WS02006116           JUNCTION      0.00   831.72     0  03:02           0        10.9       0.166
  WS02006230           JUNCTION     10.28   532.63     0  07:20        0.29        8.79       0.163
  WS02006231           JUNCTION      0.00   522.35     0  07:21           0         8.5       0.084
  WS02006232           JUNCTION      0.00   522.60     0  07:20           0        8.52       0.185
  WS02006234           JUNCTION      0.00   522.81     0  07:20           0        8.53       0.081
  WS02006235           JUNCTION      0.00   523.48     0  07:21           0         8.6       0.111
  WS02006238           JUNCTION      0.00   400.99     0  06:29           0        5.17       0.149
  WS02006240           JUNCTION      0.00   401.05     0  06:28           0        5.13       0.214
  WS02006242           JUNCTION      0.00   401.41     0  06:29           0        5.12       0.261
  WS02006243           JUNCTION      0.00   401.05     0  06:29           0        5.12       0.177
  WS02006245           JUNCTION      0.00   401.20     0  06:22           0        5.12       0.187
  WS02006247           JUNCTION      0.00   401.15     0  06:23           0        5.12       0.130
  WS02006248           JUNCTION      0.00   401.21     0  06:28           0        5.12       0.093
  WS02006249           JUNCTION      0.00   487.54     0  03:00           0        5.63       0.159
  WS02006239           JUNCTION      0.00   401.00     0  06:22           0        5.15       0.204
  WS02006251           JUNCTION      0.08   487.37     0  03:01     0.00217        5.69       0.136
  WS02006252           JUNCTION      0.00   400.00     0  03:00           0        5.22       0.007
  WS02006253           JUNCTION      1.99   138.63     0  02:55     0.00928       0.474       0.680
  WS02006256           JUNCTION      0.00   983.00     0  02:10           0        9.86      -0.007
  WS02004138           JUNCTION      0.00   380.00     0  00:00           0        9.92       0.062
  WS02004139           JUNCTION      0.32   395.85     0  00:00     0.00905        9.92       0.467
  WS02004407           JUNCTION      0.00   831.48     0  03:03           0        10.8       0.072
  WS02006228           JUNCTION      0.00   817.26     0  03:02           0        10.9       0.141
  WS02006229           JUNCTION      0.00   817.41     0  03:02           0        10.9       0.122
  WS02006280           JUNCTION      0.00   413.63     0  03:02           0        2.17       0.007
  WS02006284           JUNCTION      0.10   413.58     0  03:02      0.0027        2.17       0.042
  WS02006287           JUNCTION      0.00   413.23     0  03:01           0        2.17       0.033
  WSF200               JUNCTION      0.00   829.91     0  03:05           0        10.6       0.045
  HS02004901           JUNCTION     20.36    20.36     0  03:01      0.0902      0.0904       1.990
  HS02004881           JUNCTION      7.95    90.29     0  02:56      0.0378        0.41       0.109
  HS02004876           JUNCTION     14.96    76.75     0  03:01      0.0728       0.373       0.148
  HS02004870           JUNCTION     14.89    62.15     0  03:01      0.0716         0.3       0.037
  HS02004862           JUNCTION     15.28    47.68     0  03:01      0.0788       0.229       0.076
  HS02004856           JUNCTION     11.18    32.72     0  03:01      0.0539       0.152       0.960
  HS02004852           JUNCTION      0.00    21.94     0  03:01           0      0.0979       0.059
  HS02004848           JUNCTION     34.61    34.61     0  03:01       0.174       0.174       0.028
  HS02004842           JUNCTION      0.00    12.41     0  03:01           0      0.0895      16.997
  HS02004837           JUNCTION     31.84    43.95     0  03:01       0.303        0.38       0.214
  HS02004830           JUNCTION      0.15    43.86     0  03:01     0.00423        0.37       0.335
  HS02004824           JUNCTION     42.39    85.89     0  03:01       0.225       0.594       0.091
  HS02004817           JUNCTION      0.60    86.28     0  03:01      0.0169        0.61       2.809
  HS02004807           JUNCTION     27.35   112.30     0  03:01       0.131       0.726       0.605
  HS02004802           JUNCTION      0.00   111.37     0  03:01           0       0.723       0.548
  HS02004799           JUNCTION     22.08   258.93     0  03:01       0.107        1.24       0.223
  HS02004792           JUNCTION    102.90   237.98     0  03:01        0.47        1.14       0.036
  HS02004788           JUNCTION     34.16   135.93     0  03:01       0.199       0.669       0.059
  HS02004785           JUNCTION      0.15   103.52     0  03:01     0.00423       0.471       0.106
  HS02004777           JUNCTION      0.03   104.16     0  03:01    0.000846       0.472       1.115
  HS02004770           JUNCTION     85.35   105.10     0  03:01       0.385       0.473       0.659
  HS02004480           JUNCTION      0.00   302.46     0  03:01           0        1.46       0.076
  HS02004479           JUNCTION      0.00    44.91     0  03:02           0       0.232       0.317
  HS02004478           JUNCTION      0.00   413.09     0  03:01           0        2.17       0.014
  YS02001745           JUNCTION    336.84   417.78     0  02:26        2.69         2.7       0.367
  YS02001748           JUNCTION      0.04   583.60     0  02:26     0.00127        2.69       0.806
  YS02001751           JUNCTION      0.01   343.35     0  03:01     0.00031        2.66       0.890
  YS02001754           JUNCTION      0.26   343.60     0  03:01     0.00733        2.64       0.945
  YS02001762           JUNCTION      0.00   291.17     0  02:38           0        1.91       1.113
  YS02001765           JUNCTION      0.00   292.45     0  02:38           0        1.91       1.289
  YS02001767           JUNCTION      0.54   292.73     0  02:38      0.0151        1.94       1.864
  YS02001770           JUNCTION    415.94   534.68     0  03:01        3.01        3.24       0.980
  YS02001774           JUNCTION      0.00   535.34     0  03:01           0        1.52       1.659
  YS02001779           JUNCTION      0.01   535.62     0  03:01    0.000141        1.49       1.041
  YS02001882           JUNCTION      0.00    43.16     0  02:36           0      0.0154      17.558
  YS02001884           JUNCTION      0.00    74.88     0  02:36           0      0.0514      13.730
  YS02001759           JUNCTION    399.49   572.87     0  02:38        2.78        4.43       0.518
  YS02001887           JUNCTION    494.68   495.63     0  03:01        3.19        3.22       0.266
  YS02001890           JUNCTION      0.00   495.20     0  03:01           0        3.18       0.292
  YS02001898           JUNCTION      0.00   495.77     0  03:01           0        3.16       0.101
  YS02001901           JUNCTION      0.00   496.18     0  03:01           0        3.16       0.221
  YS02001904           JUNCTION      0.00   496.01     0  03:01           0        3.16       0.204
  YS02001907           JUNCTION      0.00   942.94     0  03:01           0        7.02       0.352
  YS02001910           JUNCTION      0.00   451.20     0  03:00           0        3.87       0.308
  YS02001915           JUNCTION    296.36   451.64     0  03:00        2.25         3.9       0.157
  YS02001918           JUNCTION      0.00   210.63     0  02:46           0        1.66       0.120
  YS02001619           JUNCTION    290.53   290.53     0  03:01        2.24        2.24       0.548
  YS02001629           JUNCTION      0.00   198.97     0  02:17           0        1.69       1.737
  YS02001641           JUNCTION      0.00   398.98     0  02:34           0        4.25       0.501
  YS02001644           JUNCTION    321.01  1311.62     0  03:01        2.59         9.2       0.283
  YS02001652           JUNCTION      0.00   380.96     0  03:00           0        2.36       0.995
  YS02001655           JUNCTION      0.15   379.57     0  03:00     0.00434        2.38       1.051
  YS02001920           JUNCTION      2.87   210.87     0  02:46      0.0809        1.64       0.184
  YS02001923           JUNCTION      0.04   230.42     0  02:47     0.00106        1.56       0.050
  YS02001926           JUNCTION      0.05   184.57     0  02:46     0.00147        1.56       0.211
  YS02001929           JUNCTION    151.13   151.13     0  03:01        1.56        1.56       0.036
  YS02001658           JUNCTION      0.00   605.06     0  02:23           0        2.42       0.934
  YS02001661           JUNCTION      0.00   625.63     0  02:42           0        2.81      -0.727
  YS02001664           JUNCTION    361.21   361.21     0  03:01        2.38         2.8       0.198
  YS02001622           JUNCTION      0.00   291.17     0  03:01           0        2.22       1.455
  YS02001633           JUNCTION    326.74   396.80     0  02:35        2.66        4.31       0.750
  YS02001649           JUNCTION      0.00   826.64     0  02:35           0        5.41       0.686
  YS02001757           JUNCTION      0.00  1578.64     0  02:35           0        9.75       0.947
  YS02001895           JUNCTION      0.00   495.63     0  03:01           0        3.17       0.168
  YS02001625           JUNCTION      0.00   290.62     0  03:01           0        2.19       1.801
  YS02163301           JUNCTION      0.00   205.45     0  02:27           0        1.67       1.472
  YS02163601           JUNCTION      0.11   397.33     0  02:34      0.0031        4.27       0.713
  YS02164001           JUNCTION      0.00   397.69     0  02:35           0        4.25       0.474
  YS02001647           JUNCTION      0.00   607.71     0  03:01           0        4.51       0.627
  YSB1154              JUNCTION     26.18    26.18     0  03:01       0.129        0.13       1.130
  YSB6556              JUNCTION      0.00    25.82     0  03:01           0        0.13       0.969
  YSB1174              JUNCTION     20.52    20.52     0  03:01      0.0948      0.0953       1.368
  YSB1171              JUNCTION      0.00    45.30     0  03:01           0       0.231       2.820
  YS02006553           JUNCTION      0.00   704.52     0  03:31           0        6.56       0.242
  YS02006561           JUNCTION      0.00   982.40     0  03:00           0        9.44       0.007
  YS02006556           JUNCTION      0.00   704.16     0  03:31           0        6.57       0.174
  YS02006558           JUNCTION    433.40   983.48     0  02:59        2.93        9.47       0.055
  YS02001783           JUNCTION      0.00   982.54     0  03:00           0        9.44       0.025
  YS02001784           JUNCTION      1.06   984.28     0  03:01      0.0299        9.47       0.039
  YS02001786           JUNCTION      0.06   983.74     0  03:00     0.00159        9.47       0.038
  YS02001788           JUNCTION      0.07   983.46     0  03:00       0.002        9.47       0.024
  YS02001790           JUNCTION      0.15   983.98     0  03:00     0.00437        9.47       0.019
  YS02001791           JUNCTION      0.00   983.70     0  02:59           0        9.47       0.013
  YS02001793           JUNCTION      0.00   984.05     0  03:00           0        9.49      -0.007
  WSC                  OUTFALL       0.00  1226.37     0  03:08           0        20.9       0.000
  JK-storage           STORAGE       0.00  1135.08     0  02:04           0        9.64     -11.217
  CC-storage           STORAGE       0.00  1579.37     0  02:35           0        8.68       0.711
  XR-storage           STORAGE     844.76   844.76     0  03:01        11.8        12.4      -0.003
  
  
  **********************
  Node Surcharge Summary
  **********************
  
  Surcharging occurs when water rises above the top of the highest conduit.
  ---------------------------------------------------------------------
                                               Max. Height   Min. Depth
                                   Hours       Above Crown    Below Rim
  Node                 Type      Surcharged         Meters       Meters
  ---------------------------------------------------------------------
  WS02004401           JUNCTION        0.32          0.139        1.521
  WS02004402           JUNCTION        0.37          0.138        1.602
  WS02004403           JUNCTION        0.37          0.125        1.905
  WS02004404           JUNCTION        0.61          0.178        2.602
  WS02004406           JUNCTION        0.54          0.117        2.333
  WS02004405           JUNCTION        0.57          0.158        2.642
  WS02006109           JUNCTION        4.87          0.493        1.327
  WS02006110           JUNCTION        2.27          0.242        1.608
  WS02006112           JUNCTION        2.86          0.417        1.263
  WS02006115           JUNCTION        0.20          0.079        2.171
  WS02006116           JUNCTION        0.22          0.085        2.205
  WS02006230           JUNCTION        1.71          0.441        1.129
  WS02006231           JUNCTION        2.23          0.509        1.021
  WS02006232           JUNCTION        4.63          0.667        0.813
  WS02006234           JUNCTION        3.20          0.597        0.643
  WS02006235           JUNCTION        3.98          0.660        0.630
  WS02006238           JUNCTION        4.18          0.669        0.761
  WS02006240           JUNCTION        3.50          0.570        0.820
  WS02006242           JUNCTION        3.70          0.603        0.217
  WS02006243           JUNCTION        3.20          0.499        0.271
  WS02006245           JUNCTION        3.05          0.460        0.390
  WS02006247           JUNCTION        3.10          0.460        0.300
  WS02006248           JUNCTION        2.73          0.374        0.006
  WS02006249           JUNCTION        2.84          0.390        0.000
  WS02006239           JUNCTION        3.60          0.609        0.681
  WS02006251           JUNCTION        1.42          0.988        0.192
  WS02006252           JUNCTION        3.20          1.100        0.000
  WS02006253           JUNCTION        1.46          1.390        1.090
  WS02006256           JUNCTION        6.88          2.050        0.000
  WS02006228           JUNCTION        4.83          0.613        1.587
  YS02001748           JUNCTION        5.31          0.509        0.681
  YS02001751           JUNCTION        5.48          0.711        0.489
  YS02001754           JUNCTION        5.70          0.790        0.360
  YS02001762           JUNCTION        5.87          1.037        0.113
  YS02001765           JUNCTION        5.84          0.984        0.116
  YS02001767           JUNCTION        5.81          0.940        0.090
  YS02001770           JUNCTION        5.80          0.887        0.033
  YS02001774           JUNCTION        5.86          0.979        0.071
  YS02001779           JUNCTION        5.68          0.680        0.000
  YS02001882           JUNCTION        0.90          0.619        0.211
  YS02001884           JUNCTION        0.93          0.658        0.212
  YS02001759           JUNCTION        5.89          1.081        0.129
  YS02001887           JUNCTION        0.99          0.747        0.203
  YS02001890           JUNCTION        1.02          0.760        0.000
  YS02001898           JUNCTION        0.86          0.526        0.214
  YS02001901           JUNCTION        0.96          0.673        0.197
  YS02001904           JUNCTION        0.94          0.637        0.213
  YS02001907           JUNCTION        1.78          0.950        0.000
  YS02001910           JUNCTION        1.06          0.779        0.321
  YS02001915           JUNCTION        0.89          0.585        0.415
  YS02001918           JUNCTION        0.71          0.265        0.545
  YS02001619           JUNCTION        5.47          0.610        0.000
  YS02001629           JUNCTION        5.49          0.470        0.000
  YS02001641           JUNCTION        5.85          0.935        0.165
  YS02001644           JUNCTION        5.85          0.920        0.000
  YS02001652           JUNCTION        5.73          1.056        0.074
  YS02001655           JUNCTION        5.50          1.074        0.126
  YS02001920           JUNCTION        0.74          0.338        0.802
  YS02001658           JUNCTION        5.34          1.021        0.279
  YS02001661           JUNCTION        0.25          1.157        0.233
  YS02001622           JUNCTION        5.51          0.620        0.000
  YS02001633           JUNCTION        5.83          0.928        0.132
  YS02001649           JUNCTION        5.87          1.050        0.000
  YS02001757           JUNCTION        5.98          1.175        0.035
  YS02001895           JUNCTION        0.87          0.564        0.186
  YS02001625           JUNCTION        5.76          0.780        0.000
  YS02163301           JUNCTION        5.81          0.902        0.128
  YS02163601           JUNCTION        5.87          0.994        0.086
  YS02164001           JUNCTION        5.84          0.924        0.176
  YS02001647           JUNCTION        5.75          0.805        0.095
  YS02006553           JUNCTION        1.89          0.965        0.225
  YS02006561           JUNCTION        0.77          0.281        0.869
  YS02006556           JUNCTION        1.31          0.879        0.471
  YS02006558           JUNCTION        1.26          0.859        0.541
  YS02001783           JUNCTION        1.04          0.670        0.930
  YS02001784           JUNCTION        1.02          0.682        0.808
  YS02001786           JUNCTION        0.96          0.773        0.657
  YS02001788           JUNCTION        0.91          0.789        0.691
  YS02001790           JUNCTION        1.72          1.157        0.000
  YS02001791           JUNCTION        1.82          1.920        0.000
  YS02001793           JUNCTION        2.09          2.157        0.443
  
  
  *********************
  Node Flooding Summary
  *********************
  
  Flooding refers to all water that overflows a node, whether it ponds or not.
  --------------------------------------------------------------------------
                                                             Total   Maximum
                                 Maximum   Time of Max       Flood    Ponded
                        Hours       Rate    Occurrence      Volume     Depth
  Node                 Flooded       LPS   days hr:min    10^6 ltr    Meters
  --------------------------------------------------------------------------
  WS02006249              1.35    264.99      0  03:02       0.498     0.000
  WS02006252              0.01     30.78      0  02:56       0.000     0.000
  WS02006256              4.15    810.34      0  03:02       6.380     0.000
  YS02001779              2.43    535.61      0  03:01       1.465     0.000
  YS02001890              0.01      1.01      0  03:00       0.000     0.000
  YS02001907              0.58    394.16      0  03:01       0.442     0.000
  YS02001619              0.01     18.54      0  02:27       0.000     0.000
  YS02001629              0.01     29.97      0  02:27       0.000     0.000
  YS02001644              3.54   1310.91      0  03:01       7.033     0.000
  YS02001622              0.01     17.41      0  02:27       0.000     0.000
  YS02001649              0.04     34.06      0  03:56       0.001     0.000
  YS02001625              1.20    235.93      0  03:01       0.465     0.000
  YS02001790              0.01    143.88      0  04:37       0.000     0.000
  YS02001791              0.01    267.34      0  04:36       0.000     0.000
  JK-storage              0.77    815.44      0  02:40       0.915     0.000
  XR-storage              3.05    464.73      0  03:01       1.876     0.000
  
  
  **********************
  Storage Volume Summary
  **********************
  
  --------------------------------------------------------------------------------------------------
                         Average     Avg  Evap Exfil       Maximum     Max    Time of Max    Maximum
                          Volume    Pcnt  Pcnt  Pcnt        Volume    Pcnt     Occurrence    Outflow
  Storage Unit           1000 m3    Full  Loss  Loss       1000 m3    Full    days hr:min        LPS
  --------------------------------------------------------------------------------------------------
  JK-storage               0.131      45     0     0         0.291     100       0  02:34     983.00
  CC-storage               3.209      20     0     0         3.873      25       0  03:34     400.00
  XR-storage               0.795      86     0     0         0.926     100       0  02:55     380.00
  
  
  ***********************
  Outfall Loading Summary
  ***********************
  
  ---------------------------------------------------------------------------------------------------------------------------------
                         Flow       Avg       Max       Total         Total         Total         Total         Total         Total
                         Freq      Flow      Flow      Volume           COD            SS            TN            TP         NH4-N
  Outfall Node           Pcnt       LPS       LPS    10^6 ltr            kg            kg            kg            kg            kg
  ---------------------------------------------------------------------------------------------------------------------------------
  WSC                   99.98    837.66   1226.37      20.935      2414.240      4131.900       153.438        18.016        92.787
  ---------------------------------------------------------------------------------------------------------------------------------
  System                99.98    837.66   1226.37      20.935      2414.240      4131.900       153.438        18.016        92.787
  
  
  ********************
  Link Flow Summary
  ********************
  
  -----------------------------------------------------------------------------
                                 Maximum  Time of Max   Maximum    Max/    Max/
                                  |Flow|   Occurrence   |Veloc|    Full    Full
  Link                 Type          LPS  days hr:min     m/sec    Flow   Depth
  -----------------------------------------------------------------------------
  WS02003066WSF200     CONDUIT    829.91     0  03:05      2.94    0.14    0.30
  WS02006287WS02006284 CONDUIT    413.48     0  03:02      2.04    0.19    0.30
  WS02006284WS02006280 CONDUIT    413.63     0  03:02      2.28    0.17    0.28
  WS02006280WS02006229 CONDUIT    413.63     0  03:02      3.60    0.09    0.25
  WS02006229WS02006228 CONDUIT    817.26     0  03:02      1.63    2.71    1.00
  WS02006256WS02006235 CONDUIT    288.92     0  00:00      4.23    3.06    1.00
  WS02006253WS02006251 CONDUIT    125.43     0  02:56      0.60    0.38    1.00
  WS02006252WS02006251 CONDUIT    401.05     0  07:20      3.19    1.47    1.00
  WS02006251WS02006249 CONDUIT    487.54     0  03:00      1.27    1.41    1.00
  WS02006249WS02006248 CONDUIT    401.21     0  06:28      1.11    2.20    1.00
  WS02006248WS02006247 CONDUIT    401.15     0  06:23      1.08    0.87    1.00
  WS02006247WS02006245 CONDUIT    401.20     0  06:22      1.05    3.18    1.00
  WS02006245WS02006243 CONDUIT    401.05     0  06:29      1.06    1.19    1.00
  WS02006243WS02006242 CONDUIT    401.41     0  06:29      1.04    0.86    1.00
  WS02006242WS02006240 CONDUIT    401.05     0  06:28      1.04    1.59    1.00
  WS02006240WS02006239 CONDUIT    401.00     0  06:22      1.04    1.26    1.00
  WS02006239WS02006238 CONDUIT    400.99     0  06:29      1.04    1.28    1.00
  WS02006238WS02006235 CONDUIT    402.63     0  04:31      1.45    0.90    1.00
  WS02006235WS02006234 CONDUIT    522.81     0  07:20      1.36    5.52    1.00
  WS02006234WS02006232 CONDUIT    522.60     0  07:20      1.39    1.06    1.00
  WS02006232WS02006231 CONDUIT    522.35     0  07:21      1.36    1.09    1.00
  WS02006231WS02006230 CONDUIT    522.36     0  07:20      1.36    7.92    1.00
  WS02006230WS02006229 CONDUIT    533.75     0  07:20      1.39   11.88    1.00
  WS02006228WS02006109 CONDUIT    817.05     0  03:02      1.63    3.57    1.00
  WS02006116WS02004401 CONDUIT    831.46     0  03:02      1.06    1.15    1.00
  WS02006115WS02006116 CONDUIT    831.72     0  03:02      1.06    1.07    1.00
  WS02006113WS02006111 CONDUIT    817.83     0  03:03      2.59    0.98    0.81
  WS02006112WS02006115 CONDUIT    831.33     0  03:02      1.06    0.49    1.00
  WS02006111WS02006112 CONDUIT    818.24     0  03:03      1.74    0.39    0.90
  WS02006110WS02006113 CONDUIT    818.29     0  03:02      1.76    0.74    0.90
  WS02006109WS02006110 CONDUIT    818.24     0  03:02      1.63    1.57    1.00
  WS02004411WS02004412 CONDUIT    829.72     0  03:04      1.16    1.18    0.85
  WS02004401WS02004402 CONDUIT    831.82     0  03:03      1.06    1.00    1.00
  WS02004413WS02003067 CONDUIT    829.74     0  03:04      1.42    0.36    0.70
  WS02004412WS02004413 CONDUIT    829.71     0  03:04      1.10    0.56    0.91
  WS02004410WS02004411 CONDUIT    829.83     0  03:04      1.15    1.13    0.86
  WS02004409WS02004410 CONDUIT    830.13     0  03:03      1.15    1.07    0.87
  WS02004407WS02004409 CONDUIT    830.82     0  03:03      1.65    0.29    0.62
  WS02004406WS02004407 CONDUIT    831.48     0  03:03      1.45    0.37    0.69
  WS02004405WS02004406 CONDUIT    831.77     0  03:03      1.10    1.64    1.00
  WS02004404WS02004405 CONDUIT    832.77     0  03:03      1.15    8.16    1.00
  WS02004403WS02004404 CONDUIT    832.15     0  03:02      1.06    0.60    1.00
  WS02004402WS02004403 CONDUIT    833.01     0  03:02      1.06    1.20    1.00
  WS02004139WS02001211 CONDUIT    382.27     0  03:34      0.90    0.48    0.63
  WS02004138WS02004139 CONDUIT    395.52     0  00:00      3.64    0.08    0.46
  WS02003067WS02003066 CONDUIT    829.86     0  03:05      1.54    0.27    0.48
  WS02001213WS02003059 CONDUIT    396.46     0  07:47      0.89    0.65    0.84
  WS02001212WS02001213 CONDUIT    393.68     0  03:33      1.32    0.61    0.53
  WS02001211WS02001212 CONDUIT    391.76     0  03:33      0.78    0.30    0.69
  WS02003072WS02003073 CONDUIT   1224.39     0  03:07      1.90    2.64    0.55
  WS02003069WS02003072 CONDUIT   1224.27     0  03:07      1.77    0.59    0.59
  WS02003060WS02003069 CONDUIT   1224.05     0  03:06      1.99    0.48    0.54
  WS02003059WS02003060 CONDUIT    400.51     0  07:46      0.95    0.26    0.74
  HS02004901HS02004770 CONDUIT     20.53     0  03:01      0.07    0.08    0.42
  HS02004876HS02004881 CONDUIT     76.55     0  03:01      0.95    0.81    0.12
  HS02004870HS02004876 CONDUIT     61.90     0  03:01      0.65    0.04    0.14
  HS02004842HS02004848 CONDUIT     12.41     0  03:01      0.06    0.01    0.31
  HS02004837HS02004842 CONDUIT     12.98     0  03:02      0.42    0.01    0.32
  HS02004830HS02004837 CONDUIT     43.71     0  03:01      0.57    0.04    0.11
  HS02004824HS02004830 CONDUIT     43.67     0  03:01      0.59    0.06    0.11
  HS02004817HS02004824 CONDUIT     85.68     0  03:01      0.26    0.04    0.48
  HS02004770HS02004777 CONDUIT    104.13     0  03:01      0.35    0.19    0.43
  HS02004799HS02004480 CONDUIT    258.31     0  03:01      0.83    0.33    0.44
  HS02004792HS02004799 CONDUIT    237.05     0  03:01      0.95    0.15    0.36
  HS02004788HS02004792 CONDUIT    135.43     0  03:01      1.06    0.09    0.18
  HS02004785HS02004788 CONDUIT    103.22     0  03:02      0.71    0.78    0.21
  HS02004777HS02004785 CONDUIT    103.37     0  03:01      0.42    0.13    0.35
  HS02004480HS02004478 CONDUIT    302.30     0  03:01      1.26    1.27    0.34
  HS02004479HS02004480 CONDUIT     46.29     0  03:02      0.32    0.04    0.43
  HS02004862HS02004870 CONDUIT     47.43     0  03:01      0.66    0.05    0.10
  HS02004848HS02004852 CONDUIT     21.94     0  03:01      0.45    0.02    0.07
  HS02004856HS02004862 CONDUIT     32.47     0  03:01      0.48    0.03    0.10
  HS02004852HS02004856 CONDUIT     21.85     0  03:02      0.25    0.02    0.13
  HS02004802HS02004478 CONDUIT    111.52     0  03:02      0.45    0.10    0.36
  HS02004478WS02006287 CONDUIT    413.23     0  03:01      1.75    0.12    0.26
  HS02004817HS02004807 CONDUIT     86.14     0  03:01      0.19    0.05    0.63
  HS02004807HS02004802 CONDUIT    111.37     0  03:01      0.38    0.21    0.42
  YS02001759YS02001757 CONDUIT    573.79     0  02:38      0.73    0.41    1.00
  YS02001762YS02001759 CONDUIT    292.57     0  02:28      0.37    0.34    1.00
  YS02001765YS02001762 CONDUIT    291.17     0  02:38      0.37    0.27    1.00
  YS02001770YS02001767 CONDUIT    292.19     0  02:38      0.37    1.16    1.00
  YS02001774YS02001770 CONDUIT    535.34     0  03:01      0.68    0.34    1.00
  YS02001779YS02001774 CONDUIT    535.61     0  03:01      0.68    0.27    1.00
  YS02001649YS02001757 CONDUIT    828.25     0  02:35      1.05    0.50    1.00
  YS02001767YS02001765 CONDUIT    292.45     0  02:38      0.37    0.37    1.00
  YS02006561YS02001783 CONDUIT    982.54     0  03:00      2.15    0.51    1.00
  YS02001783YS02001784 CONDUIT    983.22     0  03:01      1.96    1.36    1.00
  YS02001784YS02001785 CONDUIT    983.69     0  03:00      1.96    2.29    1.00
  YS02001788YS02001790 CONDUIT    983.83     0  03:00      2.44    0.73    1.00
  YS02001790YS02001791 CONDUIT    983.70     0  02:59      2.91    1.07    1.00
  YS02001791YS02001793 CONDUIT    984.05     0  03:00      5.75    0.42    1.00
  YS02001910YS02001907 CONDUIT    451.74     0  03:00      0.58    0.25    1.00
  YS02001786YS02001788 CONDUIT    983.39     0  03:00      2.31    1.89    1.00
  YS02001915YS02001910 CONDUIT    451.20     0  03:00      0.59    0.22    1.00
  YS02001918YS02001915 CONDUIT    246.58     0  03:31      0.44    0.14    1.00
  YS02001923YS02001920 CONDUIT    208.00     0  02:46      0.72    0.09    1.00
  YS02001926YS02001923 CONDUIT    230.38     0  02:47      0.83    0.33    0.89
  YS02001929YS02001926 CONDUIT    184.51     0  02:46      0.89    0.09    0.79
  YS02001920YS02001918 CONDUIT    210.63     0  02:46      0.70    0.20    1.00
  YS02001629YS02163301 CONDUIT    205.45     0  02:27      0.26    0.25    1.00
  YS02001619YS02001622 CONDUIT    291.17     0  03:01      0.61    0.43    1.00
  YS02001622YS02001625 CONDUIT    290.62     0  03:01      0.37    0.16    1.00
  YS02001625YS02001629 CONDUIT    198.97     0  02:17      0.26    0.09    1.00
  YS02163301YS02001633 CONDUIT    207.10     0  02:27      0.26    0.19    1.00
  YS02163601YS02164001 CONDUIT    397.69     0  02:35      0.51    0.35    1.00
  YS02164001YS02001641 CONDUIT    398.98     0  02:34      0.51    0.54    1.00
  YS02001641YS02001644 CONDUIT    399.28     0  02:34      0.51    1.29    1.00
  YS02001647YS02001649 CONDUIT    607.71     0  03:01      0.77    0.32    1.00
  YS02006553YS02006556 CONDUIT    704.16     0  03:31      0.90    0.60    1.00
  YS02006556YS02006558 CONDUIT    705.14     0  03:31      0.90    0.56    1.00
  YSB6556YSB1171       CONDUIT     25.77     0  03:03      0.09    0.03    0.70
  YS02001907YS02006553 CONDUIT    704.52     0  03:31      0.78    0.83    1.00
  YS02006558YS02006561 CONDUIT    982.40     0  03:00      3.47    2.17    1.00
  YS02001633YS02163601 CONDUIT    397.22     0  02:34      0.51    0.42    1.00
  YS02001644YS02001647 CONDUIT    609.34     0  03:01      0.78    0.36    1.00
  YS02001745YS02001748 CONDUIT    583.56     0  02:26      1.47    0.22    0.96
  YS02001748YS02001751 CONDUIT    343.34     0  03:01      1.06    0.17    1.00
  YS02001751YS02001754 CONDUIT    343.34     0  03:01      0.92    0.17    1.00
  YS02001754YS02001757 CONDUIT    343.21     0  03:01      0.44    0.14    1.00
  YS02001882YS02001884 CONDUIT     43.16     0  02:36      0.13    0.05    1.00
  YS02001884YS02001887 CONDUIT     74.88     0  02:36      0.10    0.10    1.00
  YS02001890YS02001895 CONDUIT    495.63     0  03:01      0.63    0.23    1.00
  YS02001895YS02001898 CONDUIT    495.77     0  03:01      0.63    0.86    1.00
  YS02001898YS02001901 CONDUIT    496.18     0  03:01      0.63    0.32    1.00
  YS02001901YS02001904 CONDUIT    496.01     0  03:01      0.63    0.77    1.00
  YS02001904YS02001907 CONDUIT    496.27     0  03:01      0.63    0.17    1.00
  YS02001887YS02001890 CONDUIT    495.20     0  03:01      0.63    0.85    1.00
  YS02001652YS02001649 CONDUIT    382.34     0  03:00      0.63    0.19    1.00
  YS02001655YS02001652 CONDUIT    380.96     0  03:00      0.98    0.19    1.00
  YS02001658YS02001655 CONDUIT    379.42     0  03:00      1.22    0.16    1.00
  YS02001661YS02001658 CONDUIT    605.06     0  02:23      1.55    0.24    1.00
  YS02001664YS02001661 CONDUIT    625.63     0  02:42      1.43    0.20    0.76
  YSB1154YSB6556       CONDUIT     25.82     0  03:01      0.17    0.05    0.59
  YSB1174YSB1171       CONDUIT     20.15     0  03:01      0.07    0.03    0.70
  YSB1171HS02004479    CONDUIT     44.91     0  03:02      0.54    0.03    0.55
  HS02004881HS02006253 CONDUIT    126.27     0  02:56      2.14    0.02    0.54
  YS02001793JiankangQianchi CONDUIT   1135.08     0  02:04     17.50    0.09    1.00
  YS02001757CaochengTiaoxuchi CONDUIT   1579.37     0  02:35      2.02    0.69    1.00
  WSF200WS02003060     CONDUIT    830.10     0  03:05      1.85    0.18    0.42
  1                    CONDUIT   1226.37     0  03:08      3.51    0.43    0.46
  CC-Pump-1            PUMP       200.00     0  03:00              1.00
  CC-Pump-2            PUMP       200.00     0  03:00              1.00
  JK-Pump-1            PUMP       300.00     0  00:00              1.00
  JK-Pump-2            PUMP       683.00     0  02:10              1.00
  XR-Pump-1            PUMP        95.00     0  00:00              1.00
  XR-Pump-2            PUMP        95.00     0  00:00              1.00
  XR-Pump-3            PUMP        95.00     0  00:00              1.00
  XR-Pump-4            PUMP        95.00     0  00:00              1.00
  
  
  ***************************
  Flow Classification Summary
  ***************************
  
  -------------------------------------------------------------------------------------
                      Adjusted    ---------- Fraction of Time in Flow Class ---------- 
                       /Actual         Up    Down  Sub   Sup   Up    Down  Norm  Inlet 
  Conduit               Length    Dry  Dry   Dry   Crit  Crit  Crit  Crit  Ltd   Ctrl  
  -------------------------------------------------------------------------------------
  WS02003066WSF200        1.00   0.01  0.02  0.00  0.00  0.97  0.00  0.00  0.53  0.00
  WS02006287WS02006284    1.00   0.03  0.01  0.00  0.66  0.30  0.00  0.00  0.62  0.00
  WS02006284WS02006280    1.00   0.04  0.00  0.00  0.00  0.00  0.00  0.96  0.00  0.00
  WS02006280WS02006229    1.00   0.04  0.00  0.00  0.00  0.02  0.00  0.95  0.02  0.00
  WS02006229WS02006228    1.00   0.00  0.00  0.00  1.00  0.00  0.00  0.00  0.00  0.00
  WS02006256WS02006235    1.00   0.00  0.00  0.00  1.00  0.00  0.00  0.00  0.00  0.00
  WS02006253WS02006251    1.00   0.02  0.02  0.00  0.96  0.00  0.01  0.00  0.00  0.00
  WS02006252WS02006251    1.00   0.17  0.00  0.00  0.14  0.00  0.69  0.00  0.00  0.00
  WS02006251WS02006249    1.00   0.00  0.00  0.00  1.00  0.00  0.00  0.00  0.20  0.00
  WS02006249WS02006248    1.00   0.00  0.01  0.00  0.92  0.00  0.07  0.00  0.00  0.00
  WS02006248WS02006247    1.00   0.01  0.00  0.00  0.99  0.00  0.00  0.00  0.14  0.00
  WS02006247WS02006245    1.00   0.00  0.00  0.00  0.99  0.00  0.00  0.00  0.00  0.00
  WS02006245WS02006243    1.00   0.00  0.00  0.00  0.97  0.00  0.00  0.03  0.00  0.00
  WS02006243WS02006242    1.00   0.00  0.00  0.00  1.00  0.00  0.00  0.00  0.21  0.00
  WS02006242WS02006240    1.00   0.00  0.00  0.00  1.00  0.00  0.00  0.00  0.00  0.00
  WS02006240WS02006239    1.00   0.00  0.00  0.00  0.96  0.00  0.00  0.04  0.01  0.00
  WS02006239WS02006238    1.00   0.00  0.00  0.00  1.00  0.00  0.00  0.00  0.12  0.00
  WS02006238WS02006235    1.00   0.00  0.00  0.00  1.00  0.00  0.00  0.00  0.00  0.00
  WS02006235WS02006234    1.00   0.00  0.00  0.00  0.97  0.00  0.03  0.00  0.00  0.00
  WS02006234WS02006232    1.00   0.00  0.00  0.00  1.00  0.00  0.00  0.00  0.08  0.00
  WS02006232WS02006231    1.00   0.00  0.00  0.00  1.00  0.00  0.00  0.00  0.00  0.00
  WS02006231WS02006230    1.00   0.00  0.00  0.00  0.87  0.00  0.13  0.00  0.00  0.00
  WS02006230WS02006229    1.00   0.00  0.00  0.00  1.00  0.00  0.00  0.00  0.00  0.00
  WS02006228WS02006109    1.00   0.00  0.00  0.00  1.00  0.00  0.00  0.00  0.00  0.00
  WS02006116WS02004401    1.00   0.01  0.00  0.00  0.99  0.00  0.00  0.00  0.00  0.00
  WS02006115WS02006116    1.00   0.01  0.00  0.00  0.99  0.00  0.00  0.00  0.00  0.00
  WS02006113WS02006111    1.00   0.01  0.00  0.00  0.02  0.98  0.00  0.00  0.15  0.00
  WS02006112WS02006115    1.00   0.01  0.00  0.00  0.99  0.00  0.00  0.00  0.00  0.00
  WS02006111WS02006112    1.00   0.01  0.00  0.00  0.99  0.00  0.00  0.00  0.91  0.00
  WS02006110WS02006113    1.00   0.00  0.00  0.00  0.99  0.00  0.00  0.00  0.00  0.00
  WS02006109WS02006110    1.00   0.00  0.00  0.00  0.99  0.00  0.00  0.00  0.00  0.00
  WS02004411WS02004412    1.00   0.02  0.00  0.00  0.98  0.00  0.00  0.00  0.00  0.00
  WS02004401WS02004402    1.00   0.01  0.00  0.00  0.99  0.00  0.00  0.00  0.00  0.00
  WS02004413WS02003067    1.00   0.02  0.01  0.00  0.00  0.00  0.98  0.00  0.00  0.00
  WS02004412WS02004413    1.00   0.02  0.00  0.00  0.98  0.00  0.00  0.00  0.01  0.00
  WS02004410WS02004411    1.00   0.02  0.00  0.00  0.98  0.00  0.00  0.00  0.00  0.00
  WS02004409WS02004410    1.00   0.02  0.00  0.00  0.98  0.00  0.00  0.00  0.02  0.00
  WS02004407WS02004409    1.00   0.02  0.00  0.00  0.98  0.00  0.00  0.00  0.95  0.00
  WS02004406WS02004407    1.00   0.00  0.01  0.00  0.98  0.00  0.00  0.00  0.00  0.00
  WS02004405WS02004406    1.00   0.00  0.00  0.00  1.00  0.00  0.00  0.00  0.00  0.00
  WS02004404WS02004405    1.00   0.00  0.00  0.00  1.00  0.00  0.00  0.00  0.00  0.00
  WS02004403WS02004404    1.00   0.00  0.01  0.00  0.99  0.00  0.00  0.00  0.00  0.00
  WS02004402WS02004403    1.00   0.01  0.00  0.00  0.99  0.00  0.00  0.00  0.00  0.00
  WS02004139WS02001211    1.00   0.00  0.00  0.00  1.00  0.00  0.00  0.00  0.00  0.00
  WS02004138WS02004139    1.00   0.00  0.00  0.00  1.00  0.00  0.00  0.00  1.00  0.00
  WS02003067WS02003066    1.00   0.02  0.00  0.00  0.97  0.00  0.00  0.00  0.00  0.00
  WS02001213WS02003059    1.00   0.00  0.00  0.00  1.00  0.00  0.00  0.00  0.00  0.00
  WS02001212WS02001213    1.00   0.00  0.00  0.00  0.91  0.00  0.09  0.00  0.00  0.00
  WS02001211WS02001212    1.00   0.00  0.00  0.00  1.00  0.00  0.00  0.00  0.00  0.00
  WS02003072WS02003073    1.00   0.00  0.00  0.00  0.00  0.00  0.00  1.00  0.00  0.00
  WS02003069WS02003072    1.00   0.00  0.00  0.00  1.00  0.00  0.00  0.00  0.10  0.00
  WS02003060WS02003069    1.00   0.00  0.00  0.00  0.99  0.01  0.00  0.00  0.07  0.00
  WS02003059WS02003060    1.00   0.00  0.00  0.00  1.00  0.00  0.00  0.00  0.01  0.00
  HS02004901HS02004770    1.00   0.04  0.00  0.00  0.96  0.00  0.00  0.00  0.00  0.00
  HS02004876HS02004881    1.00   0.01  0.00  0.00  0.93  0.06  0.00  0.00  0.00  0.00
  HS02004870HS02004876    1.00   0.00  0.00  0.00  0.99  0.00  0.00  0.00  0.95  0.00
  HS02004842HS02004848    1.00   0.00  0.04  0.00  0.96  0.00  0.00  0.00  0.55  0.00
  HS02004837HS02004842    1.00   0.00  0.00  0.00  1.00  0.00  0.00  0.00  0.11  0.00
  HS02004830HS02004837    1.00   0.00  0.00  0.00  1.00  0.00  0.00  0.00  0.99  0.00
  HS02004824HS02004830    1.00   0.00  0.00  0.00  1.00  0.00  0.00  0.00  0.00  0.00
  HS02004817HS02004824    1.00   0.00  0.00  0.00  1.00  0.00  0.00  0.00  1.00  0.00
  HS02004770HS02004777    1.00   0.00  0.04  0.00  0.96  0.00  0.00  0.00  0.02  0.00
  HS02004799HS02004480    1.00   0.00  0.01  0.00  0.96  0.00  0.03  0.00  0.00  0.00
  HS02004792HS02004799    1.00   0.00  0.00  0.00  1.00  0.00  0.00  0.00  0.98  0.00
  HS02004788HS02004792    1.00   0.00  0.00  0.00  1.00  0.00  0.00  0.00  0.98  0.00
  HS02004785HS02004788    1.00   0.00  0.00  0.00  1.00  0.00  0.00  0.00  0.00  0.00
  HS02004777HS02004785    1.00   0.00  0.00  0.00  1.00  0.00  0.00  0.00  0.12  0.00
  HS02004480HS02004478    1.00   0.04  0.00  0.00  0.73  0.00  0.00  0.24  0.00  0.00
  HS02004479HS02004480    1.00   0.01  0.00  0.00  0.99  0.00  0.00  0.00  0.11  0.00
  HS02004862HS02004870    1.00   0.00  0.00  0.00  1.00  0.00  0.00  0.00  0.03  0.00
  HS02004848HS02004852    1.00   0.04  0.00  0.00  0.96  0.00  0.00  0.00  0.62  0.00
  HS02004856HS02004862    1.00   0.00  0.04  0.00  0.96  0.00  0.00  0.00  0.83  0.00
  HS02004852HS02004856    1.00   0.04  0.00  0.00  0.96  0.00  0.00  0.00  0.85  0.00
  HS02004802HS02004478    1.00   0.04  0.00  0.00  0.96  0.00  0.00  0.00  0.02  0.00
  HS02004478WS02006287    1.00   0.04  0.00  0.00  0.79  0.17  0.00  0.00  0.64  0.00
  HS02004817HS02004807    1.00   0.00  0.04  0.00  0.96  0.00  0.00  0.00  0.01  0.00
  HS02004807HS02004802    1.00   0.04  0.00  0.00  0.96  0.00  0.00  0.00  0.00  0.00
  YS02001759YS02001757    1.00   0.00  0.00  0.00  1.00  0.00  0.00  0.00  0.16  0.00
  YS02001762YS02001759    1.00   0.00  0.00  0.00  1.00  0.00  0.00  0.00  0.03  0.00
  YS02001765YS02001762    1.00   0.00  0.00  0.00  1.00  0.00  0.00  0.00  0.13  0.00
  YS02001770YS02001767    1.00   0.00  0.00  0.00  1.00  0.00  0.00  0.00  0.00  0.00
  YS02001774YS02001770    1.00   0.00  0.04  0.00  0.96  0.00  0.00  0.00  0.03  0.00
  YS02001779YS02001774    1.00   0.00  0.00  0.00  1.00  0.00  0.00  0.00  0.18  0.00
  YS02001649YS02001757    1.00   0.00  0.00  0.00  1.00  0.00  0.00  0.00  0.16  0.00
  YS02001767YS02001765    1.00   0.00  0.00  0.00  1.00  0.00  0.00  0.00  0.00  0.00
  YS02006561YS02001783    1.00   0.05  0.00  0.00  0.33  0.62  0.00  0.00  0.47  0.00
  YS02001783YS02001784    1.00   0.00  0.05  0.00  0.95  0.00  0.00  0.00  0.00  0.00
  YS02001784YS02001785    1.00   0.00  0.00  0.00  1.00  0.00  0.00  0.00  0.17  0.00
  YS02001788YS02001790    1.00   0.00  0.00  0.00  0.36  0.64  0.00  0.00  0.39  0.00
  YS02001790YS02001791    1.00   0.00  0.00  0.00  0.33  0.67  0.00  0.00  0.49  0.00
  YS02001791YS02001793    1.00   0.00  0.00  0.00  0.36  0.63  0.00  0.00  0.03  0.00
  YS02001910YS02001907    1.00   0.00  0.00  0.00  0.99  0.00  0.00  0.01  0.12  0.00
  YS02001786YS02001788    1.00   0.00  0.00  0.00  0.34  0.66  0.00  0.00  0.00  0.00
  YS02001915YS02001910    1.00   0.00  0.00  0.00  0.99  0.01  0.00  0.00  0.15  0.00
  YS02001918YS02001915    1.00   0.00  0.00  0.00  0.99  0.01  0.00  0.00  0.55  0.00
  YS02001923YS02001920    1.00   0.00  0.00  0.00  1.00  0.00  0.00  0.00  0.84  0.00
  YS02001926YS02001923    1.00   0.00  0.02  0.00  0.11  0.00  0.87  0.00  0.00  0.00
  YS02001929YS02001926    1.00   0.00  0.04  0.00  0.96  0.00  0.00  0.00  0.77  0.00
  YS02001920YS02001918    1.00   0.00  0.00  0.00  1.00  0.00  0.00  0.00  0.00  0.00
  YS02001629YS02163301    1.00   0.04  0.00  0.00  0.96  0.00  0.00  0.00  0.00  0.00
  YS02001619YS02001622    1.00   0.04  0.00  0.00  0.96  0.00  0.00  0.00  0.00  0.00
  YS02001622YS02001625    1.00   0.04  0.00  0.00  0.96  0.00  0.00  0.00  0.04  0.00
  YS02001625YS02001629    1.00   0.04  0.01  0.00  0.93  0.00  0.02  0.00  0.00  0.00
  YS02163301YS02001633    1.00   0.00  0.04  0.00  0.96  0.00  0.00  0.00  0.00  0.00
  YS02163601YS02164001    1.00   0.00  0.02  0.00  0.98  0.00  0.00  0.00  0.00  0.00
  YS02164001YS02001641    1.00   0.00  0.02  0.00  0.98  0.00  0.00  0.00  0.06  0.00
  YS02001641YS02001644    1.00   0.00  0.00  0.00  1.00  0.00  0.00  0.00  0.00  0.00
  YS02001647YS02001649    1.00   0.00  0.05  0.00  0.95  0.00  0.00  0.00  0.01  0.00
  YS02006553YS02006556    1.00   0.01  0.00  0.00  0.99  0.00  0.00  0.00  0.03  0.00
  YS02006556YS02006558    1.00   0.00  0.00  0.00  1.00  0.00  0.00  0.00  0.00  0.00
  YSB6556YSB1171          1.00   0.01  0.02  0.00  0.97  0.00  0.00  0.00  0.00  0.00
  YS02001907YS02006553    1.00   0.00  0.01  0.00  0.99  0.00  0.00  0.00  0.00  0.00
  YS02006558YS02006561    1.00   0.05  0.00  0.00  0.11  0.84  0.00  0.00  0.48  0.00
  YS02001633YS02163601    1.00   0.00  0.00  0.00  1.00  0.00  0.00  0.00  0.15  0.00
  YS02001644YS02001647    1.00   0.00  0.05  0.00  0.95  0.00  0.00  0.00  0.00  0.00
  YS02001745YS02001748    1.00   0.00  0.00  0.00  0.91  0.01  0.00  0.08  0.04  0.00
  YS02001748YS02001751    1.00   0.00  0.00  0.00  0.97  0.03  0.00  0.00  0.15  0.00
  YS02001751YS02001754    1.00   0.00  0.00  0.00  0.95  0.00  0.00  0.05  0.02  0.00
  YS02001754YS02001757    1.00   0.00  0.00  0.00  1.00  0.00  0.00  0.00  0.18  0.00
  YS02001882YS02001884    1.00   0.04  0.00  0.00  0.96  0.00  0.00  0.00  0.00  0.00
  YS02001884YS02001887    1.00   0.02  0.01  0.00  0.97  0.00  0.00  0.00  0.00  0.00
  YS02001890YS02001895    1.00   0.00  0.04  0.00  0.96  0.00  0.00  0.00  0.00  0.00
  YS02001895YS02001898    1.00   0.04  0.00  0.00  0.95  0.00  0.01  0.00  0.00  0.00
  YS02001898YS02001901    1.00   0.04  0.00  0.00  0.96  0.00  0.00  0.00  0.01  0.00
  YS02001901YS02001904    1.00   0.04  0.00  0.00  0.96  0.00  0.00  0.00  0.00  0.00
  YS02001904YS02001907    1.00   0.00  0.04  0.00  0.96  0.00  0.00  0.00  0.00  0.00
  YS02001887YS02001890    1.00   0.00  0.00  0.00  0.99  0.00  0.01  0.00  0.00  0.00
  YS02001652YS02001649    1.00   0.00  0.00  0.00  1.00  0.00  0.00  0.00  0.16  0.00
  YS02001655YS02001652    1.00   0.00  0.00  0.00  0.95  0.00  0.00  0.05  0.02  0.00
  YS02001658YS02001655    1.00   0.00  0.04  0.00  0.94  0.03  0.00  0.00  0.08  0.00
  YS02001661YS02001658    1.00   0.04  0.00  0.00  0.91  0.05  0.00  0.00  0.08  0.00
  YS02001664YS02001661    1.00   0.04  0.00  0.00  0.92  0.04  0.00  0.00  0.19  0.00
  YSB1154YSB6556          1.00   0.03  0.00  0.00  0.97  0.00  0.00  0.00  0.01  0.00
  YSB1174YSB1171          1.00   0.02  0.01  0.00  0.97  0.00  0.00  0.00  0.00  0.00
  YSB1171HS02004479       1.00   0.01  0.00  0.00  0.98  0.00  0.00  0.00  0.10  0.00
  HS02004881HS02006253    1.00   0.02  0.00  0.00  0.78  0.02  0.00  0.19  0.61  0.00
  YS02001793JiankangQianchi    1.00   0.00  0.00  0.00  0.64  0.36  0.00  0.00  0.40  0.00
  YS02001757CaochengTiaoxuchi    1.00   0.00  0.06  0.00  0.94  0.00  0.00  0.00  0.00  0.00
  WSF200WS02003060        1.00   0.00  0.01  0.00  0.98  0.01  0.00  0.00  0.23  0.00
  1                       1.00   0.00  0.00  0.00  0.00  1.00  0.00  0.00  0.49  0.00
  
  
  *************************
  Conduit Surcharge Summary
  *************************
  
  ----------------------------------------------------------------------------
                                                           Hours        Hours 
                         --------- Hours Full --------   Above Full   Capacity
  Conduit                Both Ends  Upstream  Dnstream   Normal Flow   Limited
  ----------------------------------------------------------------------------
  WS02006229WS02006228        4.83      4.92      4.83      5.68         4.83
  WS02006256WS02006235        6.15      6.16      6.88      4.56         0.01
  WS02006253WS02006251        2.71      2.71      2.82      0.01         0.01
  WS02006252WS02006251        2.21      2.21      3.20      2.88         0.01
  WS02006251WS02006249        2.73      2.74      2.84      1.94         1.75
  WS02006249WS02006248        2.72      2.73      2.84      4.47         0.01
  WS02006248WS02006247        2.81      2.81      3.10      0.01         0.01
  WS02006247WS02006245        3.05      3.15      3.05      4.67         3.01
  WS02006245WS02006243        3.10      3.11      3.20      0.73         0.75
  WS02006243WS02006242        3.27      3.27      3.70      0.01         0.01
  WS02006242WS02006240        3.50      3.50      3.83      3.04         0.01
  WS02006240WS02006239        3.52      3.55      3.60      1.86         1.39
  WS02006239WS02006238        3.82      3.87      4.18      1.98         1.57
  WS02006238WS02006235        4.10      4.10      4.42      0.01         0.01
  WS02006235WS02006234        3.20      3.20      3.98      6.10         0.01
  WS02006234WS02006232        3.77      3.77      4.63      1.23         1.26
  WS02006232WS02006231        2.23      2.23      4.63      1.52         0.01
  WS02006231WS02006230        1.71      1.71      2.36      6.17         0.01
  WS02006230WS02006229        5.37      5.61      5.37      6.26         5.37
  WS02006228WS02006109        4.87      5.16      4.87      6.04         4.87
[...]
  YS02001765YS02001762        5.84      5.84      5.87      0.01         0.01
  YS02001770YS02001767        5.81      5.81      5.81      0.19         0.86
  YS02001774YS02001770        5.80      5.80      5.86      0.01         0.01
  YS02001779YS02001774        5.68      5.68      5.86      0.01         0.01
  YS02001649YS02001757        5.87      5.87      5.98      0.01         0.01
  YS02001767YS02001765        5.81      5.81      5.84      0.01         0.01
  YS02006561YS02001783        0.77      0.77      1.04      0.01         0.01
  YS02001783YS02001784        1.02      1.04      1.02      1.40         1.00
  YS02001784YS02001785        0.96      1.02      0.96      2.39         0.96
  YS02001788YS02001790        0.91      0.91      1.72      0.01         0.01
  YS02001790YS02001791        1.71      1.72      1.82      0.87         0.84
  YS02001791YS02001793        1.82      1.82      2.18      0.01         0.01
  YS02001910YS02001907        1.06      1.06      1.77      0.01         0.01
  YS02001786YS02001788        0.91      0.96      0.91      1.95         0.91
  YS02001915YS02001910        0.89      0.89      1.06      0.01         0.01
  YS02001918YS02001915        0.71      0.71      0.89      0.01         0.01
  YS02001923YS02001920        0.53      0.53      0.74      0.01         0.01
  YS02001920YS02001918        0.71      0.71      0.74      0.01         0.01
  YS02001629YS02163301        5.80      5.80      5.81      0.01         0.01
  YS02001619YS02001622        5.47      5.47      5.51      0.01         0.01
  YS02001622YS02001625        5.51      5.51      5.76      0.01         0.01
  YS02001625YS02001629        5.49      5.49      5.76      0.01         0.01
  YS02163301YS02001633        5.81      5.81      5.84      0.01         0.01
  YS02163601YS02164001        5.84      5.84      5.87      0.01         0.01
  YS02164001YS02001641        5.84      5.84      5.85      0.01         0.03
  YS02001641YS02001644        5.85      5.85      5.85      1.52         1.63
  YS02001647YS02001649        5.75      5.75      5.87      0.01         0.01
  YS02006553YS02006556        1.31      1.31      1.89      0.01         0.01
  YS02006556YS02006558        1.51      1.51      1.96      0.01         0.01
  YS02001907YS02006553        2.40      2.40      2.63      0.01         0.01
  YS02006558YS02006561        0.90      1.26      0.90      2.23         0.90
  YS02001633YS02163601        5.83      5.83      5.87      0.01         0.01
  YS02001644YS02001647        5.75      5.75      5.85      0.01         0.01
  YS02001745YS02001748        0.01      0.01      5.31      0.01         0.01
  YS02001748YS02001751        5.36      5.36      5.48      0.01         0.01
  YS02001751YS02001754        5.47      5.47      5.70      0.01         0.01
  YS02001754YS02001757        5.74      5.74      5.98      0.01         0.01
  YS02001882YS02001884        0.90      0.90      0.93      0.01         0.01
  YS02001884YS02001887        0.97      0.97      0.99      0.01         0.01
  YS02001890YS02001895        0.87      0.87      1.08      0.01         0.01
  YS02001895YS02001898        0.86      0.86      0.87      0.01         0.01
  YS02001898YS02001901        0.88      0.88      0.96      0.01         0.01
  YS02001901YS02001904        0.94      0.94      0.96      0.01         0.01
  YS02001904YS02001907        0.94      0.94      1.91      0.01         0.01
  YS02001887YS02001890        1.02      1.02      1.03      0.01         0.01
  YS02001652YS02001649        5.76      5.76      5.87      0.01         0.01
  YS02001655YS02001652        5.50      5.50      5.73      0.01         0.01
  YS02001658YS02001655        5.33      5.33      5.50      0.01         0.01
  YS02001661YS02001658        0.22      0.22      5.33      0.01         0.01
  YS02001664YS02001661        0.01      0.01      1.08      0.01         0.01
  HS02004881HS02006253        0.01      0.01      1.46      0.01         0.01
  YS02001793JiankangQianchi        2.09      2.09      3.89      0.01         0.01
  YS02001757CaochengTiaoxuchi        5.21      5.21      5.98      0.01         0.01
  
  
  ***************
  Pumping Summary
  ***************
  
  ---------------------------------------------------------------------------------------------------------
                                                  Min       Avg       Max     Total     Power    % Time Off
                        Percent   Number of      Flow      Flow      Flow    Volume     Usage    Pump Curve
  Pump                 Utilized   Start-Ups       LPS       LPS       LPS  10^6 ltr     Kw-hr    Low   High
  ---------------------------------------------------------------------------------------------------------
  CC-Pump-1               63.82           2      0.00    184.29    200.00     3.300      3.86    0.0    0.0
  CC-Pump-2               51.05           7      0.00    107.25    200.00     1.920      2.67    0.0    0.0
  JK-Pump-1               63.83           5      0.00    224.17    300.00     3.974     61.17    0.0    0.0
  JK-Pump-2               51.05           4      0.00    378.61    683.00     5.890     86.64    0.0   96.2
  XR-Pump-1               97.87           2      0.00     93.35     95.00     2.508     23.97    0.0    0.0
  XR-Pump-2               97.87           2      0.00     93.35     95.00     2.508     23.97    0.0    0.0
  XR-Pump-3               95.75           3      0.00     93.36     95.00     2.451     22.68    0.0    0.0
  XR-Pump-4               95.75           3      0.00     93.36     95.00     2.451     22.68    0.0    0.0
  
  
  ***************************
  Link Pollutant Load Summary
  ***************************
  
  ------------------------------------------------------------------------------------------
                                 COD            SS            TN            TP         NH4-N
  Link                            kg            kg            kg            kg            kg
  ------------------------------------------------------------------------------------------
  WS02003066WSF200           877.324      1608.603        23.077         2.004        12.145
  WS02006287WS02006284       268.079       498.255         9.347         0.943         5.214
  WS02006284WS02006280       268.566       499.041         9.394         0.949         5.244
  WS02006280WS02006229       268.531       498.975         9.392         0.949         5.242
  WS02006229WS02006228       880.393      1614.059        22.623         1.932        11.831
  WS02006256WS02006235       195.542       356.564         4.413         0.348         2.244
  WS02006253WS02006251        52.599       100.939         1.242         0.097         0.627
  WS02006252WS02006251       426.376       771.405         8.929         0.638         4.386
  WS02006251WS02006249       470.759       857.660        10.003         0.724         4.932
  WS02006249WS02006248       426.172       775.855         9.068         0.656         4.472
  WS02006248WS02006247       425.926       775.460         9.062         0.655         4.470
  WS02006247WS02006245       425.447       774.612         9.051         0.654         4.464
  WS02006245WS02006243       424.931       773.784         9.035         0.653         4.456
  WS02006243WS02006242       424.395       772.848         9.025         0.652         4.451
  WS02006242WS02006240       423.629       771.537         9.005         0.651         4.441
  WS02006240WS02006239       423.759       771.892         9.005         0.651         4.440
  WS02006239WS02006238       424.630       773.469         9.032         0.653         4.455
  WS02006238WS02006235       424.975       773.964         9.045         0.655         4.463
  WS02006235WS02006234       616.240      1122.732        13.351         0.993         6.652
  WS02006234WS02006232       615.593      1121.596        13.339         0.993         6.646
  WS02006232WS02006231       614.792      1120.191        13.318         0.991         6.635
  WS02006231WS02006230       614.195      1119.128        13.305         0.990         6.628
  WS02006230WS02006229       612.948      1116.988        13.268         0.987         6.608
  WS02006228WS02006109       879.190      1611.976        22.588         1.929        11.812
  WS02006116WS02004401       889.190      1629.524        23.340         2.023        12.275
  WS02006115WS02006116       890.545      1631.889        23.379         2.026        12.296
  WS02006113WS02006111       884.503      1620.059        23.304         2.021        12.267
  WS02006112WS02006115       891.919      1634.294        23.423         2.030        12.320
  WS02006111WS02006112       883.848      1618.889        23.287         2.020        12.258
  WS02006110WS02006113       885.136      1621.149        23.326         2.023        12.279
  WS02006109WS02006110       886.392      1623.320        23.370         2.028        12.304
  WS02004411WS02004412       880.684      1614.492        23.184         2.014        12.203
  WS02004401WS02004402       887.907      1627.280        23.300         2.019        12.253
  WS02004413WS02003067       878.037      1609.848        23.095         2.005        12.154
  WS02004412WS02004413       879.433      1612.303        23.147         2.010        12.183
  WS02004410WS02004411       881.714      1616.291        23.213         2.016        12.218
  WS02004409WS02004410       882.738      1618.081        23.244         2.019        12.235
  WS02004407WS02004409       883.602      1619.585        23.266         2.021        12.247
  WS02004406WS02004407       883.859      1620.020        23.269         2.021        12.248
  WS02004405WS02004406       885.248      1622.433        23.319         2.026        12.276
  WS02004404WS02004405       886.206      1624.140        23.323         2.025        12.275
  WS02004403WS02004404       885.757      1623.523        23.235         2.013        12.218
  WS02004402WS02004403       886.761      1625.282        23.267         2.016        12.235
  WS02004139WS02001211      1398.764      2304.517       116.310        14.243        71.827
  WS02004138WS02004139      1405.419      2315.506       116.848        14.309        72.158
  WS02003067WS02003066       877.532      1608.969        23.084         2.004        12.148
  WS02001213WS02003059      1431.102      2355.514       119.635        14.662        73.915
  WS02001212WS02001213      1440.663      2371.209       120.436        14.761        74.411
  WS02001211WS02001212      1442.853      2374.774       120.627        14.784        74.529
  WS02003072WS02003073      2407.971      4122.359       152.640        17.913        92.280
  WS02003069WS02003072      2413.253      4131.058       153.059        17.964        92.539
  WS02003060WS02003069      2415.977      4135.706       153.213        17.982        92.631
  WS02003059WS02003060      1427.813      2350.026       119.386        14.632        73.763
  HS02004901HS02004770        10.270        19.478         0.195         0.015         0.091
  HS02004876HS02004881        37.321        72.586         0.843         0.062         0.416
  HS02004870HS02004876        28.162        54.633         0.678         0.051         0.338
  HS02004842HS02004848         5.467        10.277         0.115         0.008         0.053
  HS02004837HS02004842        10.072        17.582         0.584         0.067         0.347
  HS02004830HS02004837        65.640       112.706         4.557         0.546         2.785
  HS02004824HS02004830        66.391       113.910         4.628         0.555         2.830
  HS02004817HS02004824        88.209       156.981         5.083         0.584         3.051
  HS02004770HS02004777        39.297        75.469         0.819         0.055         0.377
  HS02004799HS02004480       131.418       245.389         3.680         0.335         1.933
  HS02004792HS02004799       119.092       220.676         3.497         0.327         1.853
  HS02004788HS02004792        68.399       126.864         2.388         0.235         1.309
  HS02004785HS02004788        40.735        77.765         0.969         0.074         0.471
  HS02004777HS02004785        40.061        76.670         0.909         0.067         0.434
  HS02004480HS02004478       165.964       312.621         4.244         0.375         2.196
  HS02004479HS02004480        38.149        72.981         0.884         0.079         0.462
  HS02004862HS02004870        21.017        40.120         0.536         0.043         0.270
  HS02004848HS02004852         8.058        15.280         0.167         0.011         0.077
  HS02004856HS02004862        14.073        27.342         0.284         0.019         0.133
  HS02004852HS02004856         8.065        15.291         0.167         0.011         0.077
  HS02004802HS02004478       102.893       186.902         5.163         0.576         3.055
  HS02004478WS02006287       268.275       498.583         9.364         0.945         5.225
  HS02004817HS02004807        86.892       154.870         4.957         0.568         2.972
  HS02004807HS02004802       103.118       187.254         5.194         0.580         3.075
  YS02001759YS02001757       352.371       641.136         7.065         0.488         3.450
  YS02001762YS02001759       153.751       278.741         3.325         0.232         1.648
  YS02001765YS02001762       154.103       279.898         3.352         0.235         1.664
  YS02001770YS02001767       153.883       280.902         3.158         0.206         1.534
  YS02001774YS02001770       161.679       311.860         3.137         0.207         1.517
  YS02001779YS02001774       160.450       309.304         3.218         0.220         1.575
  YS02001649YS02001757       287.499       508.415         5.787         0.404         2.771
  YS02001767YS02001765       154.938       281.871         3.383         0.237         1.681
  YS02006561YS02001783       936.036      1716.609        19.831         1.488         9.897
  YS02001783YS02001784       935.903      1716.397        19.826         1.488         9.894
  YS02001784YS02001785       943.229      1728.139        20.539         1.577        10.340
  YS02001788YS02001790       943.781      1729.030        20.610         1.586        10.386
  YS02001790YS02001791       944.818      1730.724        20.710         1.599        10.448
  YS02001791YS02001793       944.669      1730.459        20.705         1.598        10.445
  YS02001910YS02001907       330.101       599.208         8.232         0.642         4.253
  YS02001786YS02001788       943.409      1728.436        20.566         1.581        10.358
  YS02001915YS02001910       330.191       599.349         8.188         0.636         4.223
  YS02001918YS02001915       159.939       278.002         4.661         0.434         2.537
  YS02001923YS02001920       137.641       241.465         2.675         0.188         1.302
  YS02001926YS02001923       136.674       239.889         2.594         0.178         1.253
  YS02001929YS02001926       136.173       239.034         2.555         0.174         1.228
  YS02001920YS02001918       157.912       274.015         4.592         0.427         2.499
  YS02001629YS02163301       103.475       183.343         2.170         0.140         1.012
  YS02001619YS02001622       146.390       262.922         3.031         0.197         1.414
  YS02001622YS02001625       145.228       261.085         3.003         0.195         1.401
  YS02001625YS02001629       104.570       185.156         2.194         0.141         1.023
  YS02163301YS02001633       103.182       182.849         2.163         0.140         1.009
  YS02163601YS02164001       361.973       646.080         7.115         0.502         3.403
  YS02164001YS02001641       361.488       645.264         7.095         0.500         3.392
  YS02001641YS02001644       361.723       645.586         7.094         0.500         3.391
  YS02001647YS02001649       337.671       606.122         6.695         0.467         3.190
  YS02006553YS02006556       657.541      1200.235        14.233         1.095         7.178
  YS02006556YS02006558       657.483      1200.116        14.201         1.090         7.157
  YSB6556YSB1171              21.954        42.200         0.451         0.038         0.229
  YS02001907YS02006553       657.678      1200.511        14.247         1.097         7.188
  YS02006558YS02006561       936.039      1716.605        19.830         1.488         9.897
  YS02001633YS02163601       362.687       647.191         7.095         0.498         3.387
  YS02001644YS02001647       343.573       616.729         6.798         0.475         3.239
  YS02001745YS02001748       210.424       387.023         4.761         0.334         2.381
  YS02001748YS02001751       208.403       383.206         4.799         0.343         2.414
  YS02001751YS02001754       207.460       381.663         4.782         0.342         2.406
  YS02001754YS02001757       208.234       382.830         4.946         0.365         2.513
  YS02001882YS02001884         2.311         3.962         0.047         0.004         0.024
  YS02001884YS02001887         6.682        11.842         0.131         0.010         0.065
  YS02001890YS02001895       389.476       720.678         7.189         0.539         3.508
  YS02001895YS02001898       389.277       720.392         7.182         0.539         3.504
  YS02001898YS02001901       389.066       720.036         7.178         0.538         3.502
  YS02001901YS02001904       388.909       719.810         7.184         0.540         3.507
  YS02001904YS02001907       389.115       720.120         7.238         0.547         3.541
  YS02001887YS02001890       390.271       721.863         7.244         0.546         3.541
  YS02001652YS02001649       150.999       276.275         3.081         0.222         1.444
  YS02001655YS02001652       151.751       277.468         3.100         0.223         1.454
  YS02001658YS02001655       151.515       277.076         3.020         0.212         1.400
  YS02001661YS02001658       155.787       284.646         3.108         0.218         1.441
  YS02001664YS02001661       175.856       318.364         3.548         0.248         1.643
  YSB1154YSB6556              21.533        41.530         0.402         0.032         0.198
  YSB1174YSB1171              14.655        28.292         0.298         0.024         0.150
  YSB1171HS02004479           38.107        72.914         0.888         0.079         0.465
  HS02004881HS02006253        42.404        82.849         0.927         0.067         0.455
  YS02001793JiankangQianchi       948.750      1737.104        20.882         1.617        10.547
  YS02001757CaochengTiaoxuchi       659.191      1179.539        13.954         0.991         6.852
  WSF200WS02003060           877.211      1608.405        23.083         2.005        12.149
  1                         2414.240      4131.900       153.438        18.016        92.787
  CC-Pump-1                  269.295       487.216         5.637         0.402         2.768
  CC-Pump-2                  157.102       284.224         3.293         0.236         1.618
  JK-Pump-1                  252.866       462.852         5.644         0.442         2.862
  JK-Pump-2                  461.417       860.115         9.598         0.721         4.781
  XR-Pump-1                  357.771       589.179        29.813         3.652        18.415
  XR-Pump-2                  357.771       589.179        29.813         3.652        18.415
  XR-Pump-3                  346.866       571.731        28.774         3.522        17.766
  XR-Pump-4                  346.866       571.731        28.774         3.522        17.766
  

  Analysis begun on:  Wed Jul 14 09:39:50 2021
  Analysis ended on:  Wed Jul 14 09:39:53 2021
  Total elapsed time: 00:00:03