
  EPA STORM WATER MANAGEMENT MODEL - VERSION 5.1 (Build 5.3.0.dev0)
  --------------------------------------------------------------

  WARNING 04: minimum elevation drop used for Conduit WS02004404WS02004405
  WARNING 03: negative offset ignored for Link YS02001904YS02001907
  
  *********************************************************
  NOTE: The summary statistics displayed in this report are
  based on results found at every computational time step,  
  not just on results from each reporting time step.
  *********************************************************
  
  ****************
  Analysis Options
  ****************
  Flow Units ............... LPS
  Process Models:
    Rainfall/Runoff ........ YES
    RDII ................... NO
    Snowmelt ............... NO
    Groundwater ............ NO
    Flow Routing ........... YES
    Ponding Allowed ........ NO
    Water Quality .......... YES
  Infiltration Method ...... HORTON
  Flow Routing Method ...... DYNWAVE
  Surcharge Method ......... EXTRAN
  Starting Date ............ 08/28/2015 08:00:00
  Ending Date .............. 08/28/2015 15:50:00
  Antecedent Dry Days ...... 8.0
  Report Time Step ......... 00:01:00
  Wet Time Step ............ 00:01:00
  Dry Time Step ............ 00:01:00
  Routing Time Step ........ 5.00 sec
  Variable Time Step ....... YES
  Maximum Trials ........... 8
  Number of Threads ........ 4
  Head Tolerance ........... 0.001500 m
  
  
  **************************        Volume         Depth
  Runoff Quantity Continuity     hectare-m            mm
  **************************     ---------       -------
  Total Precipitation ......         5.556        12.164
  Evaporation Loss .........         0.000         0.000
  Infiltration Loss ........         1.002         2.194
  Surface Runoff ...........         3.688         8.075
  Final Storage ............         0.866         1.897
  Continuity Error (%) .....        -0.019
  
  
  **************************           COD            SS            TN            TP         NH4-N
  Runoff Quality Continuity             kg            kg            kg            kg            kg
  **************************    ----------    ----------    ----------    ----------    ----------
  Initial Buildup ..........     41378.656     70582.865      1804.177       168.684      1032.807
  Surface Buildup ..........        19.275        34.271         2.335         0.213         1.362
  Wet Deposition ...........         0.000         0.000         0.000         0.000         0.000
  Sweeping Removal .........         0.000         0.000         0.000         0.000         0.000
  Infiltration Loss ........        84.023       157.502         1.599         0.111         0.761
  BMP Removal ..............         0.000         0.000         0.000         0.000         0.000
  Surface Runoff ...........      3122.074      5752.154        60.620         4.098        28.771
  Remaining Buildup ........     38190.779     64705.500      1744.271       164.686      1004.628
  Continuity Error (%) .....         0.003         0.003         0.001         0.001         0.001
  
  
  **************************        Volume        Volume
  Flow Routing Continuity        hectare-m      10^6 ltr
  **************************     ---------     ---------
  Dry Weather Inflow .......         0.616         6.165
  Wet Weather Inflow .......         3.687        36.870
  Groundwater Inflow .......         0.000         0.000
  RDII Inflow ..............         0.000         0.000
  External Inflow ..........         0.102         1.024
  External Outflow .........         2.005        20.050
  Flooding Loss ............         1.970        19.703
  Evaporation Loss .........         0.000         0.000
  Exfiltration Loss ........         0.000         0.000
  Initial Stored Volume ....         0.076         0.761
  Final Stored Volume ......         0.618         6.181
  Continuity Error (%) .....        -2.488
  
  
  **************************           COD            SS            TN            TP         NH4-N
  Quality Routing Continuity            kg            kg            kg            kg            kg
  **************************    ----------    ----------    ----------    ----------    ----------
  Dry Weather Inflow .......      1541.201      2465.922       147.955        18.494        92.472
  Wet Weather Inflow .......      3121.328      5750.907        60.604         4.097        28.763
  Groundwater Inflow .......         0.000         0.000         0.000         0.000         0.000
  RDII Inflow ..............         0.000         0.000         0.000         0.000         0.000
  External Inflow ..........       183.418       293.469        17.608         2.201        11.005
  External Outflow .........      2359.474      4037.142       151.719        17.858        91.854
  Flooding Loss ............      1822.275      3337.246        47.975         4.223        25.334
  Exfiltration Loss ........         0.000         0.000         0.000         0.000         0.000
  Mass Reacted .............         0.000         0.000         0.000         0.000         0.000
  Initial Stored Mass ......         0.000         0.000         0.000         0.000         0.000
  Final Stored Mass ........       517.886       884.801        23.004         2.446        13.312
  Continuity Error (%) .....         3.019         2.951         1.534         1.072         1.316
  
  
  *************************
  Highest Continuity Errors
  *************************
  Node HS02004842 (14.53%)
  Node JK-storage (-10.94%)
  Node YS02001884 (10.38%)
  Node YSB1171 (2.74%)
  Node HS02004817 (2.73%)
  
  
  ***************************
  Time-Step Critical Elements
  ***************************
  Link WS02006252WS02006251 (66.96%)
  Link WS02006280WS02006229 (10.81%)
  Link WS02006238WS02006235 (5.04%)
  Link WS02004404WS02004405 (3.33%)
  Link YS02001793JiankangQianchi (1.89%)
  
  
  ********************************
  Highest Flow Instability Indexes
  ********************************
  Link YS02001619YS02001622 (49)
  Link YS02163301YS02001633 (48)
  Link YS02163601YS02164001 (47)
  Link YS02001629YS02163301 (47)
  Link YS02164001YS02001641 (44)
  
  
  *************************
  Routing Time Step Summary
  *************************
  Minimum Time Step           :     0.40 sec
  Average Time Step           :     1.10 sec
  Maximum Time Step           :     5.00 sec
  Percent in Steady State     :    -0.00
  Average Iterations per Step :     4.92
  Percent Not Converging      :    25.55
  
  
  ***************************
  Subcatchment Runoff Summary
  ***************************
  
  ------------------------------------------------------------------------------------------------------------------------------
                            Total      Total      Total      Total     Imperv       Perv      Total       Total     Peak  Runoff
                           Precip      Runon       Evap      Infil     Runoff     Runoff     Runoff      Runoff   Runoff   Coeff
  Subcatchment                 mm         mm         mm         mm         mm         mm         mm    10^6 ltr      LPS
  ------------------------------------------------------------------------------------------------------------------------------
  sub0                      12.16       0.00       0.00       0.65      11.27       0.20      11.47        0.01     1.99   0.943
  sub1                      12.16       0.00       0.00       1.12      10.73       0.22      10.95        0.07    14.96   0.900
  sub2                      12.16       0.00       0.00       4.23       7.58       0.27       7.85        0.07    15.08   0.646
  sub3                      12.16       0.00       0.00       4.29       7.54       0.21       7.75        0.17    34.61   0.637
  sub4                      12.16       0.00       0.00       1.19      10.57       0.14      10.71        0.22    42.34   0.881
  sub5                      12.16       0.00       0.00       0.69      11.21       0.16      11.38        0.13    26.18   0.935
  sub7                      12.16       0.00       0.00       0.88      11.01       0.22      11.22        0.04     7.95   0.923
  sub8                      12.16       0.00       0.00       0.89      11.00       0.21      11.20        0.07    14.89   0.921
  sub9                      12.16       0.00       0.00       0.89      10.99       0.21      11.20        0.05    11.18   0.921
  sub10                     12.16       0.00       0.00       0.79      11.10       0.18      11.28        0.12    25.49   0.928
  sub11                     12.16       0.00       0.00       0.78      11.12       0.19      11.31        0.13    27.35   0.930
  sub12                     12.16       0.00       0.00       1.27      10.53       0.31      10.85        0.09    20.52   0.892
  sub14                     12.16       0.00       0.00       0.89      10.99       0.20      11.20        0.11    22.08   0.920
  sub15                     12.16       0.00       0.00       3.28       8.45       0.37       8.82        0.15    32.49   0.725
  sub16                     12.16       0.00       0.00       3.51       8.11       0.50       8.61        0.09    20.36   0.708
  sub17                     12.16       0.00       0.00       3.41       8.23       0.48       8.71        0.07    16.72   0.716
  sub22                     12.16       0.00       0.00       4.80       6.89       0.43       7.32        0.46   102.62   0.602
  sub23                     12.16       0.00       0.00       4.05       7.62       0.45       8.07        0.38    85.35   0.663
  sub60                     12.16       0.00       0.00       1.42       8.82       0.04       8.86        2.69   336.84   0.729
  sub61                     12.16       0.00       0.00       2.01       8.94       0.06       9.00        2.78   399.45   0.740
  sub62                     12.16       0.00       0.00       0.92       9.73       0.05       9.78        3.01   415.79   0.804
  sub63                     12.16       0.00       0.00       3.46       7.82       0.06       7.88        2.39   361.21   0.648
  sub64                     12.16       0.00       0.00       1.78       8.47       0.04       8.51        2.59   320.97   0.699
  sub65                     12.16       0.00       0.00       1.54       8.61       0.04       8.65        2.66   326.54   0.711
  sub66                     12.16       0.00       0.00       3.49       7.26       0.04       7.30        2.24   290.53   0.600
  sub67                     12.16       0.00       0.00       0.91      10.24       0.07      10.31        3.18   494.23   0.848
  sub68                     12.16       0.00       0.00       1.64       9.40       0.06       9.46        2.91   432.52   0.778
  sub69                     12.16       0.00       0.00       1.73       9.72       0.09       9.82        2.29   383.95   0.807
  sub70                     12.16      10.02       0.00       6.98      13.09       0.56      13.65        3.12   394.93   0.615
  sub71                     12.16       0.00       0.00       0.93       9.48       0.05       9.53        2.25   296.34   0.783
  sub72                     12.16       0.00       0.00       0.83       7.62       0.02       7.64        1.56   151.13   0.628
  1                         12.16      13.29       0.00       1.37      14.64       3.94      18.57        4.36   399.24   0.730
  2                         12.16       0.00       0.00       3.02       2.89       1.65       4.55        1.82   245.52   0.374
  
  
  ****************************
  Subcatchment Washoff Summary
  ****************************
  
  ------------------------------------------------------------------------------------------
                                 COD            SS            TN            TP         NH4-N
  Subcatchment                    kg            kg            kg            kg            kg
  ------------------------------------------------------------------------------------------
  sub0                         2.176         4.147         0.037         0.003         0.018
  sub1                         9.268        18.138         0.173         0.012         0.083
  sub2                         5.563        10.570         0.119         0.008         0.054
  sub3                        13.747        25.918         0.288         0.019         0.132
  sub4                        21.530        42.606         0.429         0.026         0.205
  sub5                        21.300        41.103         0.378         0.029         0.183
  sub7                         4.748         9.424         0.090         0.006         0.043
  sub8                         7.142        14.500         0.143         0.008         0.069
  sub9                         6.100        12.212         0.118         0.007         0.057
  sub10                       17.532        34.266         0.321         0.023         0.155
  sub11                       17.086        33.770         0.320         0.022         0.154
  sub12                       14.392        27.890         0.260         0.019         0.125
  sub14                       13.021        25.823         0.247         0.016         0.119
  sub15                       16.182        30.744         0.313         0.023         0.146
  sub16                       10.318        19.555         0.197         0.015         0.092
  sub17                        9.471        17.789         0.175         0.014         0.082
  sub22                       48.821        90.813         0.932         0.070         0.434
  sub23                       29.138        56.181         0.627         0.041         0.287
  sub60                      203.703       376.194         4.083         0.248         1.956
  sub61                      251.300       461.579         4.699         0.320         2.261
  sub62                      262.762       491.326         5.157         0.324         2.474
  sub63                      185.047       334.594         3.739         0.261         1.731
  sub64                      253.867       452.095         4.687         0.339         2.235
  sub65                      260.106       465.192         4.834         0.344         2.309
  sub66                      146.558       263.078         3.037         0.197         1.417
  sub67                      388.205       718.566         6.963         0.510         3.363
  sub68                      276.714       513.393         5.318         0.356         2.539
  sub69                      247.676       464.012         4.658         0.325         2.225
  sub70                      413.256       778.342         8.287         0.572         3.877
  sub71                      173.740       327.842         3.597         0.206         1.720
  sub72                      136.329       239.316         2.558         0.174         1.230
  1                          280.724       531.718         5.751         0.398         2.660
  2                           35.485        61.812         1.030         0.062         0.437
  ------------------------------------------------------------------------------------------
  System                    3783.006      6994.507        73.566         4.996        34.873
  
  
  ******************
  Node Depth Summary
  ******************
  
  ---------------------------------------------------------------------------------
                                 Average  Maximum  Maximum  Time of Max    Reported
                                   Depth    Depth      HGL   Occurrence   Max Depth
  Node                 Type       Meters   Meters   Meters  days hr:min      Meters
  ---------------------------------------------------------------------------------
  WS02001211           JUNCTION     0.77     0.83     5.67     0  03:08        0.83
  WS02001212           JUNCTION     0.48     0.56     5.62     0  03:07        0.56
  WS02001213           JUNCTION     0.72     0.83     5.59     0  03:07        0.83
  WS02003069           JUNCTION     0.53     0.68     5.27     0  03:06        0.68
  WS02003072           JUNCTION     0.59     0.73     5.10     0  03:07        0.73
  WS02003073           JUNCTION     0.36     0.46     4.52     0  03:07        0.46
  WS02003060           JUNCTION     0.47     0.60     5.53     0  03:06        0.60
  WS02003066           JUNCTION     0.26     0.36     5.92     0  03:04        0.36
  WS02003059           JUNCTION     0.77     0.88     5.57     0  03:06        0.88
  WS02003067           JUNCTION     0.61     0.79     6.11     0  03:04        0.79
  WS02004401           JUNCTION     0.74     1.14     7.14     0  03:02        1.13
  WS02004402           JUNCTION     0.77     1.14     7.10     0  03:03        1.13
  WS02004403           JUNCTION     0.78     1.13     7.06     0  03:01        1.12
  WS02004404           JUNCTION     0.86     1.18     7.03     0  03:02        1.18
  WS02004406           JUNCTION     0.86     1.12     6.95     0  03:01        1.11
  WS02004409           JUNCTION     0.56     0.87     6.64     0  03:04        0.87
  WS02004410           JUNCTION     0.57     0.87     6.59     0  03:04        0.87
  WS02004411           JUNCTION     0.58     0.86     6.54     0  03:04        0.86
  WS02004412           JUNCTION     0.60     0.85     6.49     0  03:04        0.85
  WS02004413           JUNCTION     0.75     0.98     6.45     0  03:04        0.98
  WS02004405           JUNCTION     0.85     1.15     7.00     0  03:03        1.15
  WS02006109           JUNCTION     0.83     1.31     7.93     0  03:02        1.31
  WS02006110           JUNCTION     0.81     1.15     7.74     0  03:02        1.15
  WS02006111           JUNCTION     0.25     0.65     7.36     0  03:03        0.65
  WS02006112           JUNCTION     0.92     1.42     7.30     0  03:02        1.41
  WS02006113           JUNCTION     0.38     0.65     7.54     0  03:03        0.65
  WS02006115           JUNCTION     0.63     1.09     7.23     0  03:03        1.09
  WS02006116           JUNCTION     0.71     1.14     7.18     0  03:02        1.14
  WS02006230           JUNCTION     0.84     1.52     8.27     0  03:02        1.51
  WS02006231           JUNCTION     0.58     1.22     8.34     0  03:02        1.21
  WS02006232           JUNCTION     0.72     1.36     8.40     0  03:02        1.35
  WS02006234           JUNCTION     0.66     1.32     8.47     0  03:01        1.31
  WS02006235           JUNCTION     0.70     1.37     8.53     0  03:01        1.35
  WS02006238           JUNCTION     0.73     1.40     8.54     0  03:02        1.38
  WS02006240           JUNCTION     0.63     1.28     8.57     0  03:01        1.28
  WS02006242           JUNCTION     0.69     1.33     8.60     0  03:02        1.33
  WS02006243           JUNCTION     0.57     1.21     8.63     0  03:01        1.20
  WS02006245           JUNCTION     0.55     1.17     8.65     0  03:02        1.17
  WS02006247           JUNCTION     0.56     1.17     8.67     0  02:59        1.16
  WS02006248           JUNCTION     0.50     1.10     8.68     0  02:59        1.09
  WS02006249           JUNCTION     0.52     1.09     8.69     0  02:55        1.09
  WS02006239           JUNCTION     0.69     1.35     8.56     0  03:01        1.34
  WS02006251           JUNCTION     0.49     1.36     9.03     0  02:56        1.36
  WS02006252           JUNCTION     0.34     0.84     9.08     0  02:56        0.84
  WS02006253           JUNCTION     0.52     1.60     9.24     0  02:55        1.48
  WS02006256           JUNCTION     1.65     2.35     9.28     0  00:00        2.35
  WS02004138           JUNCTION     0.19     0.20     7.45     0  00:00        0.19
  WS02004139           JUNCTION     0.72     0.77     5.68     0  03:08        0.77
  WS02004407           JUNCTION     0.25     0.37     6.68     0  03:03        0.37
  WS02006228           JUNCTION     0.84     1.44     8.09     0  03:02        1.43
  WS02006229           JUNCTION     0.82     1.49     8.18     0  03:02        1.48
  WS02006280           JUNCTION     0.07     0.20     8.47     0  03:02        0.20
  WS02006284           JUNCTION     0.37     0.56     8.96     0  03:02        0.56
  WS02006287           JUNCTION     0.09     0.30     9.25     0  03:01        0.30
  WSF200               JUNCTION     0.25     0.40     5.64     0  03:04        0.40
  HS02004901           JUNCTION     0.12     0.29    10.12     0  03:01        0.29
  HS02004881           JUNCTION     0.01     0.04     9.07     0  02:56        0.04
  HS02004876           JUNCTION     0.04     0.12     9.15     0  03:01        0.12
  HS02004870           JUNCTION     0.01     0.07     9.35     0  03:01        0.07
  HS02004862           JUNCTION     0.02     0.08     9.46     0  03:01        0.08
  HS02004856           JUNCTION     0.08     0.13     9.55     0  03:01        0.13
  HS02004852           JUNCTION     0.01     0.05     9.56     0  03:01        0.05
  HS02004848           JUNCTION     0.01     0.05     9.65     0  03:01        0.05
  HS02004842           JUNCTION     0.33     0.38     9.65     0  03:01        0.38
  HS02004837           JUNCTION     0.03     0.07     9.65     0  03:01        0.07
  HS02004830           JUNCTION     0.04     0.08     9.55     0  03:01        0.08
  HS02004824           JUNCTION     0.02     0.06     9.47     0  03:01        0.06
  HS02004817           JUNCTION     0.44     0.61     9.45     0  03:01        0.61
  HS02004807           JUNCTION     0.12     0.28     9.45     0  03:01        0.28
  HS02004802           JUNCTION     0.16     0.31     9.44     0  03:01        0.31
  HS02004799           JUNCTION     0.12     0.35     9.56     0  03:01        0.35
  HS02004792           JUNCTION     0.03     0.15     9.67     0  03:01        0.15
  HS02004788           JUNCTION     0.02     0.11    10.01     0  03:01        0.11
  HS02004785           JUNCTION     0.04     0.18    10.09     0  03:01        0.18
  HS02004777           JUNCTION     0.15     0.31    10.11     0  03:01        0.31
  HS02004770           JUNCTION     0.12     0.29    10.12     0  03:01        0.29
  HS02004480           JUNCTION     0.08     0.28     9.52     0  03:01        0.28
  HS02004479           JUNCTION     0.11     0.32     9.52     0  03:01        0.32
  HS02004478           JUNCTION     0.06     0.20     9.42     0  03:01        0.20
  YS02001745           JUNCTION     0.74     0.91     8.43     0  03:00        0.91
  YS02001748           JUNCTION     1.14     1.44     8.52     0  02:27        1.34
  YS02001751           JUNCTION     1.33     1.58     8.46     0  02:18        1.54
  YS02001754           JUNCTION     1.58     1.82     8.43     0  02:54        1.80
  YS02001762           JUNCTION     1.79     2.03     8.43     0  02:55        2.02
  YS02001765           JUNCTION     1.74     1.98     8.43     0  02:55        1.97
  YS02001767           JUNCTION     1.70     1.93     8.42     0  02:55        1.92
  YS02001770           JUNCTION     1.70     1.92     8.41     0  02:56        1.91
  YS02001774           JUNCTION     1.76     1.98     8.40     0  02:59        1.97
  YS02001779           JUNCTION     1.51     1.68     8.37     0  02:36        1.68
  YS02001882           JUNCTION     0.51     1.62     8.33     0  03:00        1.61
  YS02001884           JUNCTION     0.61     1.72     8.34     0  03:00        1.72
  YS02001759           JUNCTION     1.82     2.07     8.44     0  02:55        2.06
  YS02001887           JUNCTION     0.69     1.80     8.33     0  03:00        1.79
  YS02001890           JUNCTION     0.72     1.81     8.32     0  02:54        1.81
  YS02001898           JUNCTION     0.49     1.56     8.29     0  02:58        1.56
  YS02001901           JUNCTION     0.61     1.67     8.28     0  03:00        1.66
  YS02001904           JUNCTION     0.58     1.63     8.26     0  02:58        1.63
  YS02001907           JUNCTION     0.92     1.96     8.25     0  02:46        1.96
  YS02001910           JUNCTION     0.70     1.77     8.28     0  02:48        1.76
  YS02001915           JUNCTION     0.50     1.58     8.29     0  02:48        1.57
  YS02001918           JUNCTION     0.25     1.24     8.30     0  02:48        1.23
  YS02001619           JUNCTION     1.29     1.55     8.48     0  02:24        1.47
  YS02001629           JUNCTION     1.65     1.85     8.40     0  02:24        1.84
  YS02001641           JUNCTION     1.75     1.93     8.37     0  03:10        1.93
  YS02001644           JUNCTION     1.75     1.92     8.35     0  02:35        1.92
  YS02001652           JUNCTION     1.60     2.16     8.76     0  02:43        1.92
  YS02001655           JUNCTION     1.36     2.20     9.05     0  03:34        1.73
  YS02001920           JUNCTION     0.35     1.30     8.31     0  02:48        1.30
  YS02001923           JUNCTION     0.19     1.06     8.32     0  02:48        1.05
  YS02001926           JUNCTION     0.26     0.87     8.32     0  02:48        0.87
  YS02001929           JUNCTION     0.14     0.63     8.32     0  02:47        0.62
  YS02001658           JUNCTION     1.08     2.24     9.39     0  02:23        1.49
  YS02001661           JUNCTION     0.85     2.42     9.82     0  03:34        1.26
  YS02001664           JUNCTION     0.37     0.57     8.49     0  04:21        0.56
  YS02001622           JUNCTION     1.31     1.53     8.44     0  02:24        1.50
  YS02001633           JUNCTION     1.74     1.94     8.40     0  02:57        1.94
  YS02001649           JUNCTION     1.79     2.05     8.44     0  02:38        2.05
  YS02001757           JUNCTION     1.92     2.17     8.44     0  02:54        2.16
  YS02001895           JUNCTION     0.48     1.56     8.31     0  03:00        1.55
  YS02001625           JUNCTION     1.60     1.78     8.38     0  02:24        1.78
  YS02163301           JUNCTION     1.68     1.89     8.40     0  06:02        1.88
  YS02163601           JUNCTION     1.79     1.99     8.39     0  02:59        1.98
  YS02164001           JUNCTION     1.73     1.92     8.38     0  02:35        1.92
  YS02001647           JUNCTION     1.58     1.80     8.41     0  02:43        1.79
  YSB1154              JUNCTION     0.26     0.47     9.52     0  03:01        0.47
  YSB6556              JUNCTION     0.15     0.35     9.52     0  03:01        0.35
  YSB1174              JUNCTION     0.21     0.41     9.52     0  03:01        0.41
  YSB1171              JUNCTION     0.41     0.62     9.52     0  03:01        0.62
  YS02006553           JUNCTION     0.92     1.96     8.25     0  02:56        1.96
  YS02006561           JUNCTION     0.28     1.06     7.72     0  02:59        1.05
  YS02006556           JUNCTION     0.88     1.92     8.23     0  03:00        1.92
  YS02006558           JUNCTION     0.93     1.96     8.23     0  02:59        1.96
  YS02001783           JUNCTION     0.49     1.45     7.59     0  03:00        1.44
  YS02001784           JUNCTION     0.52     1.39     7.45     0  02:59        1.38
  YS02001786           JUNCTION     0.46     1.29     7.32     0  02:19        1.22
  YS02001788           JUNCTION     0.39     1.26     7.24     0  02:19        1.08
  YS02001790           JUNCTION     0.50     1.96     7.60     0  04:37        1.24
  YS02001791           JUNCTION     0.45     2.72     8.19     0  02:18        1.22
  YS02001793           JUNCTION     0.62     3.27     8.10     0  04:34        1.79
  WSC                  OUTFALL      0.36     0.46     1.13     0  03:08        0.46
  JK-storage           STORAGE      2.66     5.80     6.60     0  02:19        5.80
  CC-storage           STORAGE      1.17     1.38     8.38     0  02:59        1.38
  XR-storage           STORAGE      6.65     7.72     5.72     0  02:52        7.72
  
  
  *******************
  Node Inflow Summary
  *******************
  
  -------------------------------------------------------------------------------------------------
                                  Maximum  Maximum                  Lateral       Total        Flow
                                  Lateral    Total  Time of Max      Inflow      Inflow     Balance
                                   Inflow   Inflow   Occurrence      Volume      Volume       Error
  Node                 Type           LPS      LPS  days hr:min    10^6 ltr    10^6 ltr     Percent
  -------------------------------------------------------------------------------------------------
  WS02001211           JUNCTION      7.35   389.53     0  07:38       0.207          10       0.403
  WS02001212           JUNCTION      0.00   391.64     0  07:38           0        9.99       0.242
  WS02001213           JUNCTION      0.00   393.56     0  07:37           0        9.96       0.283
  WS02003069           JUNCTION      0.32  1227.58     0  03:06     0.00902        20.1       0.165
  WS02003072           JUNCTION      0.00  1227.47     0  03:07           0        20.1       0.201
  WS02003073           JUNCTION      1.82  1229.35     0  03:07      0.0514        20.1       0.231
  WS02003060           JUNCTION     16.53  1227.20     0  03:06       0.466        20.1       0.155
  WS02003066           JUNCTION      0.00   830.09     0  03:05           0        9.79       0.043
  WS02003059           JUNCTION      0.00   396.56     0  07:37           0        9.94       0.396
  WS02003067           JUNCTION      0.00   829.96     0  03:04           0         9.8       0.089
  WS02004401           JUNCTION      0.00   831.25     0  03:03           0          10       0.194
  WS02004402           JUNCTION      0.00   832.15     0  03:03           0        9.99       0.185
  WS02004403           JUNCTION      0.00   831.66     0  03:03           0        9.97       0.171
  WS02004404           JUNCTION      0.16   831.95     0  03:03     0.00457        9.96       0.128
  WS02004406           JUNCTION      0.00   831.11     0  03:03           0        9.93       0.315
  WS02004409           JUNCTION      0.00   830.76     0  03:03           0        9.89       0.145
  WS02004410           JUNCTION      0.00   830.30     0  03:03           0        9.88       0.168
  WS02004411           JUNCTION      0.00   830.07     0  03:04           0        9.86       0.174
  WS02004412           JUNCTION      0.00   829.95     0  03:04           0        9.84       0.191
  WS02004413           JUNCTION      0.00   829.92     0  03:04           0        9.82       0.289
  WS02004405           JUNCTION      0.04   832.51     0  03:03     0.00107        9.95       0.198
  WS02006109           JUNCTION      1.23   818.65     0  03:02      0.0347          10       0.207
  WS02006110           JUNCTION      0.00   818.53     0  03:02           0          10       0.177
  WS02006111           JUNCTION      0.00   817.71     0  03:03           0          10       0.034
  WS02006112           JUNCTION     16.72   830.84     0  03:03      0.0747        10.1       0.254
  WS02006113           JUNCTION      0.00   818.49     0  03:02           0          10       0.081
  WS02006115           JUNCTION      0.00   830.77     0  03:03           0          10       0.177
  WS02006116           JUNCTION      0.00   830.97     0  03:03           0          10       0.174
  WS02006230           JUNCTION     10.28   534.44     0  06:34        0.29        7.88       0.164
  WS02006231           JUNCTION      0.00   524.07     0  06:34           0         7.6       0.095
  WS02006232           JUNCTION      0.00   523.86     0  06:34           0        7.61       0.199
  WS02006234           JUNCTION      0.00   523.85     0  06:34           0        7.62       0.081
  WS02006235           JUNCTION      0.00   524.58     0  06:34           0        7.67       0.123
  WS02006238           JUNCTION      0.00   392.11     0  04:31           0        4.36       0.143
  WS02006240           JUNCTION      0.00   391.90     0  04:31           0        4.33       0.233
  WS02006242           JUNCTION      0.00   391.58     0  04:31           0        4.33       0.297
  WS02006243           JUNCTION      0.00   392.70     0  04:30           0        4.33       0.085
  WS02006245           JUNCTION      0.00   391.54     0  04:30           0        4.33       0.213
  WS02006247           JUNCTION      0.00   391.84     0  04:30           0        4.34       0.151
  WS02006248           JUNCTION      0.00   392.08     0  04:30           0        4.35       0.110
  WS02006249           JUNCTION      0.00   487.41     0  03:00           0        4.79       0.189
  WS02006239           JUNCTION      0.00   391.88     0  04:31           0        4.34       0.122
  WS02006251           JUNCTION      0.08   487.27     0  03:00     0.00217        4.84       0.173
  WS02006252           JUNCTION      0.00   400.00     0  03:00           0        4.38       0.009
  WS02006253           JUNCTION      1.99   132.87     0  07:11     0.00928       0.461       0.726
  WS02006256           JUNCTION      0.00   983.00     0  00:00           0        9.76       0.001
  WS02004138           JUNCTION      0.00   380.00     0  00:00           0        9.86       0.065
  WS02004139           JUNCTION      0.32   396.51     0  00:00     0.00905        9.86       0.458
  WS02004407           JUNCTION      0.00   830.92     0  03:03           0         9.9       0.064
  WS02006228           JUNCTION      0.00   817.31     0  03:02           0          10       0.151
  WS02006229           JUNCTION      0.00   817.55     0  03:02           0          10       0.117
  WS02006280           JUNCTION      0.00   413.62     0  03:02           0        2.17       0.006
  WS02006284           JUNCTION      0.10   413.57     0  03:02      0.0027        2.17       0.041
  WS02006287           JUNCTION      0.00   413.22     0  03:01           0        2.17       0.033
  WSF200               JUNCTION      0.00   830.14     0  03:05           0        9.78       0.039
  HS02004901           JUNCTION     20.36    20.36     0  03:01      0.0902      0.0904       1.990
  HS02004881           JUNCTION      7.95    84.19     0  03:01      0.0378        0.41       0.109
  HS02004876           JUNCTION     14.96    76.75     0  03:01      0.0728       0.373       0.148
  HS02004870           JUNCTION     14.89    62.15     0  03:01      0.0716         0.3       0.037
  HS02004862           JUNCTION     15.28    47.68     0  03:01      0.0788       0.229       0.077
  HS02004856           JUNCTION     11.18    32.72     0  03:01      0.0539       0.152       0.963
  HS02004852           JUNCTION      0.00    21.94     0  03:01           0      0.0979       0.059
  HS02004848           JUNCTION     34.61    34.61     0  03:01       0.174       0.174       0.028
  HS02004842           JUNCTION      0.00    12.41     0  03:01           0      0.0895      16.997
  HS02004837           JUNCTION     31.84    43.95     0  03:01       0.303        0.38       0.214
  HS02004830           JUNCTION      0.15    43.86     0  03:01     0.00423        0.37       0.334
  HS02004824           JUNCTION     42.39    85.90     0  03:01       0.225       0.594       0.091
  HS02004817           JUNCTION      0.60    86.28     0  03:01      0.0169        0.61       2.809
  HS02004807           JUNCTION     27.35   112.31     0  03:01       0.131       0.726       0.604
  HS02004802           JUNCTION      0.00   111.37     0  03:01           0       0.723       0.549
  HS02004799           JUNCTION     22.08   258.93     0  03:01       0.107        1.24       0.223
  HS02004792           JUNCTION    102.90   237.99     0  03:01        0.47        1.14       0.036
  HS02004788           JUNCTION     34.16   135.93     0  03:01       0.199       0.669       0.059
  HS02004785           JUNCTION      0.15   103.52     0  03:01     0.00423       0.471       0.106
  HS02004777           JUNCTION      0.03   104.16     0  03:01    0.000846       0.472       1.115
  HS02004770           JUNCTION     85.35   105.10     0  03:01       0.385       0.473       0.659
  HS02004480           JUNCTION      0.00   302.45     0  03:01           0        1.46       0.077
  HS02004479           JUNCTION      0.00    44.91     0  03:02           0       0.232       0.317
  HS02004478           JUNCTION      0.00   413.08     0  03:01           0        2.17       0.014
  YS02001745           JUNCTION    336.84   374.39     0  02:27        2.69        2.69       0.384
  YS02001748           JUNCTION      0.04   535.30     0  02:27     0.00127        2.68       0.808
  YS02001751           JUNCTION      0.01   343.13     0  03:01     0.00031        2.66       0.895
  YS02001754           JUNCTION      0.26   343.90     0  03:01     0.00733        2.64       0.954
  YS02001762           JUNCTION      0.00   291.30     0  02:39           0        1.73       1.236
  YS02001765           JUNCTION      0.00   290.78     0  02:39           0        1.74       1.431
  YS02001767           JUNCTION      0.54   291.29     0  02:39      0.0151        1.76       2.068
  YS02001770           JUNCTION    415.94   535.17     0  03:01        3.01        3.15       1.010
  YS02001774           JUNCTION      0.00   536.05     0  03:01           0        1.52       1.687
  YS02001779           JUNCTION      0.01   536.26     0  03:01    0.000141        1.49       1.045
  YS02001882           JUNCTION      0.00    12.62     0  02:21           0      0.0226      11.344
  YS02001884           JUNCTION      0.00    23.17     0  02:21           0      0.0597      11.583
  YS02001759           JUNCTION    399.49   575.01     0  02:39        2.78        4.34       0.532
  YS02001887           JUNCTION    494.68   494.68     0  03:01        3.19        3.22       0.264
  YS02001890           JUNCTION      0.00   495.42     0  03:01           0        3.18       0.296
  YS02001898           JUNCTION      0.00   495.51     0  03:01           0        3.16       0.095
  YS02001901           JUNCTION      0.00   495.75     0  03:01           0        3.16       0.229
  YS02001904           JUNCTION      0.00   496.34     0  03:01           0        3.16       0.203
  YS02001907           JUNCTION      0.00   949.10     0  03:01           0        7.02       0.347
  YS02001910           JUNCTION      0.00   454.84     0  03:01           0        3.87       0.302
  YS02001915           JUNCTION    296.36   454.51     0  03:01        2.25        3.88       0.163
  YS02001918           JUNCTION      0.00   211.39     0  03:30           0        1.64       0.120
  YS02001619           JUNCTION    290.53   290.53     0  03:01        2.24        2.24       0.548
  YS02001629           JUNCTION      0.00   190.40     0  02:17           0        1.69       1.732
  YS02001641           JUNCTION      0.00   397.07     0  02:35           0        4.25       0.496
  YS02001644           JUNCTION    321.01  1310.23     0  03:01        2.59         9.6       0.274
  YS02001652           JUNCTION      0.00   381.56     0  03:01           0        2.35       0.986
  YS02001655           JUNCTION      0.15   380.49     0  03:01     0.00434        2.37       1.047
  YS02001920           JUNCTION      2.87   190.03     0  03:30      0.0809        1.63       0.187
  YS02001923           JUNCTION      0.04   165.73     0  02:48     0.00106        1.55       0.056
  YS02001926           JUNCTION      0.05   154.87     0  03:01     0.00147        1.56       0.209
  YS02001929           JUNCTION    151.13   151.13     0  03:01        1.56        1.56       0.037
  YS02001658           JUNCTION      0.00   595.78     0  02:23           0        2.41       0.937
  YS02001661           JUNCTION      0.00   626.09     0  02:38           0        2.89      -0.471
  YS02001664           JUNCTION    361.21   361.21     0  03:01        2.38        2.88       0.207
  YS02001622           JUNCTION      0.00   291.32     0  03:01           0        2.22       1.435
  YS02001633           JUNCTION    326.74   398.27     0  02:35        2.66        4.31       0.751
  YS02001649           JUNCTION      0.00   826.41     0  02:35           0        5.43       0.691
  YS02001757           JUNCTION      0.00  1576.68     0  02:35           0        9.37       0.992
  YS02001895           JUNCTION      0.00   495.27     0  03:01           0        3.17       0.163
  YS02001625           JUNCTION      0.00   290.49     0  03:00           0        2.19       1.791
  YS02163301           JUNCTION      0.00   211.39     0  02:25           0        1.67       1.452
  YS02163601           JUNCTION      0.11   398.66     0  02:35      0.0031        4.27       0.708
  YS02164001           JUNCTION      0.00   397.92     0  02:35           0        4.25       0.474
  YS02001647           JUNCTION      0.00   608.58     0  03:01           0         4.6       0.613
  YSB1154              JUNCTION     26.18    26.18     0  03:01       0.129        0.13       1.130
  YSB6556              JUNCTION      0.00    25.82     0  03:01           0        0.13       0.969
  YSB1174              JUNCTION     20.52    20.52     0  03:01      0.0948      0.0953       1.368
  YSB1171              JUNCTION      0.00    45.30     0  03:01           0       0.231       2.821
  YS02006553           JUNCTION      0.00   703.46     0  03:31           0         6.6       0.235
  YS02006561           JUNCTION      0.00  1022.82     0  02:47           0        9.47       0.006
  YS02006556           JUNCTION      0.00   703.35     0  03:31           0         6.6       0.173
  YS02006558           JUNCTION    433.40  1023.57     0  02:47        2.93         9.5       0.057
  YS02001783           JUNCTION      0.00  1022.85     0  02:47           0        9.47       0.025
  YS02001784           JUNCTION      1.06  1023.65     0  02:47      0.0299         9.5       0.038
  YS02001786           JUNCTION      0.06  1023.76     0  02:47     0.00159         9.5       0.037
  YS02001788           JUNCTION      0.07  1023.90     0  02:47       0.002         9.5       0.024
  YS02001790           JUNCTION      0.15  1024.03     0  02:47     0.00437         9.5       0.022
  YS02001791           JUNCTION      0.00  1024.29     0  02:47           0         9.5       0.010
  YS02001793           JUNCTION      0.00  1023.88     0  02:47           0         9.5      -0.009
  WSC                  OUTFALL       0.00  1229.42     0  03:08           0          20       0.000
  JK-storage           STORAGE       0.00  1023.85     0  02:47           0        9.65      -9.861
  CC-storage           STORAGE       0.00  1576.55     0  02:35           0        7.96       0.791
  XR-storage           STORAGE     844.76   844.76     0  03:01        11.8        12.4      -0.002
  
  
  **********************
  Node Surcharge Summary
  **********************
  
  Surcharging occurs when water rises above the top of the highest conduit.
  ---------------------------------------------------------------------
                                               Max. Height   Min. Depth
                                   Hours       Above Crown    Below Rim
  Node                 Type      Surcharged         Meters       Meters
  ---------------------------------------------------------------------
  WS02004401           JUNCTION        0.34          0.137        1.523
  WS02004402           JUNCTION        0.40          0.139        1.601
  WS02004403           JUNCTION        0.41          0.125        1.905
  WS02004404           JUNCTION        0.92          0.179        2.601
  WS02004406           JUNCTION        0.68          0.117        2.333
  WS02004405           JUNCTION        0.80          0.155        2.645
  WS02006109           JUNCTION        3.69          0.492        1.328
  WS02006110           JUNCTION        1.57          0.242        1.608
  WS02006112           JUNCTION        1.92          0.416        1.264
  WS02006115           JUNCTION        0.21          0.079        2.171
  WS02006116           JUNCTION        0.23          0.084        2.206
  WS02006230           JUNCTION        1.32          0.441        1.129
  WS02006231           JUNCTION        1.58          0.506        1.024
  WS02006232           JUNCTION        3.43          0.664        0.816
  WS02006234           JUNCTION        2.80          0.598        0.642
  WS02006235           JUNCTION        3.02          0.658        0.632
  WS02006238           JUNCTION        3.14          0.678        0.752
  WS02006240           JUNCTION        2.71          0.571        0.819
  WS02006242           JUNCTION        2.83          0.602        0.218
  WS02006243           JUNCTION        1.88          0.497        0.273
  WS02006245           JUNCTION        1.59          0.459        0.391
  WS02006247           JUNCTION        1.62          0.460        0.300
  WS02006248           JUNCTION        1.38          0.375        0.005
  WS02006249           JUNCTION        1.42          0.390        0.000
  WS02006239           JUNCTION        2.85          0.611        0.679
  WS02006251           JUNCTION        1.01          0.332        0.848
  WS02006252           JUNCTION        2.18          0.443        0.657
  WS02006253           JUNCTION        1.02          0.555        1.925
  WS02006256           JUNCTION        6.71          2.050        0.000
  WS02006228           JUNCTION        3.62          0.610        1.590
  YS02001748           JUNCTION        5.30          0.360        0.830
  YS02001751           JUNCTION        5.49          0.585        0.615
  YS02001754           JUNCTION        5.69          0.773        0.377
  YS02001762           JUNCTION        5.87          1.033        0.117
  YS02001765           JUNCTION        5.84          0.979        0.121
  YS02001767           JUNCTION        5.81          0.934        0.096
  YS02001770           JUNCTION        5.80          0.886        0.034
  YS02001774           JUNCTION        5.86          0.978        0.072
  YS02001779           JUNCTION        5.67          0.680        0.000
  YS02001882           JUNCTION        0.94          0.616        0.214
  YS02001884           JUNCTION        0.97          0.659        0.211
  YS02001759           JUNCTION        5.89          1.072        0.138
  YS02001887           JUNCTION        1.04          0.747        0.203
  YS02001890           JUNCTION        1.07          0.760        0.000
  YS02001898           JUNCTION        0.90          0.527        0.213
  YS02001901           JUNCTION        1.01          0.674        0.196
  YS02001904           JUNCTION        0.98          0.635        0.215
  YS02001907           JUNCTION        1.75          0.950        0.000
  YS02001910           JUNCTION        1.12          0.773        0.327
  YS02001915           JUNCTION        0.93          0.575        0.425
  YS02001918           JUNCTION        0.70          0.237        0.573
  YS02001619           JUNCTION        5.47          0.551        0.059
  YS02001629           JUNCTION        5.48          0.470        0.000
  YS02001641           JUNCTION        5.85          0.934        0.166
  YS02001644           JUNCTION        5.85          0.920        0.000
  YS02001652           JUNCTION        5.73          1.130        0.000
  YS02001655           JUNCTION        5.50          1.200        0.000
  YS02001920           JUNCTION        0.74          0.304        0.836
  YS02001658           JUNCTION        5.33          1.245        0.055
  YS02001661           JUNCTION        0.21          1.346        0.044
  YS02001622           JUNCTION        5.51          0.534        0.086
  YS02001633           JUNCTION        5.83          0.923        0.137
  YS02001649           JUNCTION        5.88          1.050        0.000
  YS02001757           JUNCTION        5.98          1.174        0.036
  YS02001895           JUNCTION        0.91          0.564        0.186
  YS02001625           JUNCTION        5.76          0.780        0.000
  YS02163301           JUNCTION        5.81          0.885        0.145
  YS02163601           JUNCTION        5.87          0.988        0.092
  YS02164001           JUNCTION        5.83          0.917        0.183
  YS02001647           JUNCTION        5.75          0.803        0.097
  YS02006553           JUNCTION        1.83          0.965        0.225
  YS02006561           JUNCTION        0.73          0.260        0.890
  YS02006556           JUNCTION        1.35          0.880        0.470
  YS02006558           JUNCTION        1.32          0.861        0.539
  YS02001783           JUNCTION        1.29          0.649        0.951
  YS02001784           JUNCTION        1.27          0.586        0.904
  YS02001786           JUNCTION        1.22          0.485        0.945
  YS02001788           JUNCTION        1.17          0.459        1.021
  YS02001790           JUNCTION        1.88          1.157        0.000
  YS02001791           JUNCTION        1.97          1.920        0.000
  YS02001793           JUNCTION        2.24          2.268        0.332
  
  
  *********************
  Node Flooding Summary
  *********************
  
  Flooding refers to all water that overflows a node, whether it ponds or not.
  --------------------------------------------------------------------------
                                                             Total   Maximum
                                 Maximum   Time of Max       Flood    Ponded
                        Hours       Rate    Occurrence      Volume     Depth
  Node                 Flooded       LPS   days hr:min    10^6 ltr    Meters
  --------------------------------------------------------------------------
  WS02006249              0.97    264.26      0  03:02       0.434     0.000
  WS02006256              3.87    978.40      0  00:00       6.416     0.000
  YS02001779              2.69    535.92      0  03:01       1.466     0.000
  YS02001890              0.01      1.43      0  02:59       0.000     0.000
  YS02001907              0.54    399.51      0  03:01       0.411     0.000
  YS02001629              0.01     22.30      0  02:24       0.000     0.000
  YS02001644              4.19   1310.20      0  03:01       7.742     0.000
  YS02001652              0.01      7.44      0  02:43       0.000     0.000
  YS02001655              0.01      9.86      0  03:34       0.000     0.000
  YS02001649              0.05     33.34      0  03:36       0.002     0.000
  YS02001625              1.19    236.82      0  03:01       0.464     0.000
  YS02001790              0.01    149.53      0  04:37       0.000     0.000
  YS02001791              0.01    264.61      0  04:36       0.000     0.000
  JK-storage              0.76    658.61      0  02:20       0.835     0.000
  XR-storage              3.10    464.68      0  03:01       1.932     0.000
  
  
  **********************
  Storage Volume Summary
  **********************
  
  --------------------------------------------------------------------------------------------------
                         Average     Avg  Evap Exfil       Maximum     Max    Time of Max    Maximum
                          Volume    Pcnt  Pcnt  Pcnt        Volume    Pcnt     Occurrence    Outflow
  Storage Unit           1000 m3    Full  Loss  Loss       1000 m3    Full    days hr:min        LPS
  --------------------------------------------------------------------------------------------------
  JK-storage               0.134      46     0     0         0.291     100       0  02:19     983.00
  CC-storage               3.269      21     0     0         3.844      25       0  02:59     400.00
  XR-storage               0.798      86     0     0         0.926     100       0  02:52     380.00
  
  
  ***********************
  Outfall Loading Summary
  ***********************
  
  ---------------------------------------------------------------------------------------------------------------------------------
                         Flow       Avg       Max       Total         Total         Total         Total         Total         Total
                         Freq      Flow      Flow      Volume           COD            SS            TN            TP         NH4-N
  Outfall Node           Pcnt       LPS       LPS    10^6 ltr            kg            kg            kg            kg            kg
  ---------------------------------------------------------------------------------------------------------------------------------
  WSC                   99.98    801.80   1229.42      20.050      2359.606      4037.363       151.729        17.860        91.860
  ---------------------------------------------------------------------------------------------------------------------------------
  System                99.98    801.80   1229.42      20.050      2359.606      4037.363       151.729        17.860        91.860
  
  
  ********************
  Link Flow Summary
  ********************
  
  -----------------------------------------------------------------------------
                                 Maximum  Time of Max   Maximum    Max/    Max/
                                  |Flow|   Occurrence   |Veloc|    Full    Full
  Link                 Type          LPS  days hr:min     m/sec    Flow   Depth
  -----------------------------------------------------------------------------
  WS02003066WSF200     CONDUIT    830.14     0  03:05      2.95    0.14    0.30
  WS02006287WS02006284 CONDUIT    413.47     0  03:02      2.04    0.19    0.30
  WS02006284WS02006280 CONDUIT    413.62     0  03:02      2.28    0.17    0.28
  WS02006280WS02006229 CONDUIT    413.62     0  03:02      3.59    0.09    0.25
  WS02006229WS02006228 CONDUIT    817.31     0  03:02      1.63    2.71    1.00
  WS02006256WS02006235 CONDUIT    288.60     0  00:00      4.23    3.05    1.00
  WS02006253WS02006251 CONDUIT    132.36     0  07:11      0.57    0.40    1.00
  WS02006252WS02006251 CONDUIT    404.50     0  07:12      3.22    1.48    1.00
  WS02006251WS02006249 CONDUIT    487.41     0  03:00      1.27    1.41    1.00
  WS02006249WS02006248 CONDUIT    392.08     0  04:30      1.14    2.15    1.00
  WS02006248WS02006247 CONDUIT    391.84     0  04:30      1.11    0.85    1.00
  WS02006247WS02006245 CONDUIT    391.54     0  04:30      1.08    3.10    1.00
  WS02006245WS02006243 CONDUIT    392.70     0  04:30      1.09    1.16    1.00
  WS02006243WS02006242 CONDUIT    391.58     0  04:31      1.02    0.84    1.00
  WS02006242WS02006240 CONDUIT    391.90     0  04:31      1.02    1.56    1.00
  WS02006240WS02006239 CONDUIT    391.88     0  04:31      1.02    1.23    1.00
  WS02006239WS02006238 CONDUIT    392.11     0  04:31      1.02    1.25    1.00
  WS02006238WS02006235 CONDUIT    393.94     0  04:31      1.46    0.88    1.00
  WS02006235WS02006234 CONDUIT    523.85     0  06:34      1.36    5.53    1.00
  WS02006234WS02006232 CONDUIT    523.86     0  06:34      1.39    1.06    1.00
  WS02006232WS02006231 CONDUIT    524.07     0  06:34      1.36    1.10    1.00
  WS02006231WS02006230 CONDUIT    524.16     0  06:34      1.42    7.95    1.00
  WS02006230WS02006229 CONDUIT    535.06     0  07:13      1.39   11.91    1.00
  WS02006228WS02006109 CONDUIT    817.42     0  03:02      1.63    3.57    1.00
  WS02006116WS02004401 CONDUIT    831.25     0  03:03      1.06    1.15    1.00
  WS02006115WS02006116 CONDUIT    830.97     0  03:03      1.06    1.07    1.00
  WS02006113WS02006111 CONDUIT    817.71     0  03:03      2.59    0.98    0.81
  WS02006112WS02006115 CONDUIT    830.77     0  03:03      1.06    0.49    1.00
  WS02006111WS02006112 CONDUIT    818.56     0  03:03      1.73    0.39    0.90
  WS02006110WS02006113 CONDUIT    818.49     0  03:02      1.74    0.74    0.90
  WS02006109WS02006110 CONDUIT    818.53     0  03:02      1.63    1.57    1.00
  WS02004411WS02004412 CONDUIT    829.95     0  03:04      1.16    1.18    0.85
  WS02004401WS02004402 CONDUIT    832.15     0  03:03      1.06    1.00    1.00
  WS02004413WS02003067 CONDUIT    829.96     0  03:04      1.42    0.36    0.70
  WS02004412WS02004413 CONDUIT    829.92     0  03:04      1.10    0.56    0.91
  WS02004410WS02004411 CONDUIT    830.07     0  03:04      1.15    1.13    0.86
  WS02004409WS02004410 CONDUIT    830.30     0  03:03      1.15    1.07    0.87
  WS02004407WS02004409 CONDUIT    830.76     0  03:03      1.64    0.29    0.62
  WS02004406WS02004407 CONDUIT    830.92     0  03:03      1.45    0.37    0.69
  WS02004405WS02004406 CONDUIT    831.11     0  03:03      1.06    1.64    1.00
  WS02004404WS02004405 CONDUIT    832.47     0  03:03      1.06    8.16    1.00
  WS02004403WS02004404 CONDUIT    831.79     0  03:03      1.06    0.60    1.00
  WS02004402WS02004403 CONDUIT    831.66     0  03:03      1.06    1.19    1.00
  WS02004139WS02001211 CONDUIT    382.18     0  07:38      0.90    0.48    0.63
  WS02004138WS02004139 CONDUIT    396.19     0  00:00      3.65    0.08    0.46
  WS02003067WS02003066 CONDUIT    830.09     0  03:05      1.54    0.27    0.48
  WS02001213WS02003059 CONDUIT    396.56     0  07:37      0.88    0.65    0.84
  WS02001212WS02001213 CONDUIT    393.56     0  07:37      1.32    0.61    0.53
  WS02001211WS02001212 CONDUIT    391.64     0  07:38      0.78    0.30    0.69
  WS02003072WS02003073 CONDUIT   1227.52     0  03:07      1.90    2.65    0.56
  WS02003069WS02003072 CONDUIT   1227.47     0  03:07      1.77    0.59    0.59
  WS02003060WS02003069 CONDUIT   1227.26     0  03:06      1.99    0.48    0.54
  WS02003059WS02003060 CONDUIT    400.59     0  07:36      0.95    0.26    0.74
  HS02004901HS02004770 CONDUIT     20.53     0  03:01      0.07    0.08    0.42
  HS02004876HS02004881 CONDUIT     76.55     0  03:01      0.95    0.81    0.12
  HS02004870HS02004876 CONDUIT     61.90     0  03:01      0.65    0.04    0.14
  HS02004842HS02004848 CONDUIT     12.41     0  03:01      0.06    0.01    0.31
  HS02004837HS02004842 CONDUIT     12.98     0  03:02      0.42    0.01    0.32
  HS02004830HS02004837 CONDUIT     43.71     0  03:01      0.57    0.04    0.11
  HS02004824HS02004830 CONDUIT     43.66     0  03:01      0.59    0.06    0.11
  HS02004817HS02004824 CONDUIT     85.68     0  03:01      0.26    0.04    0.48
  HS02004770HS02004777 CONDUIT    104.13     0  03:01      0.35    0.19    0.43
  HS02004799HS02004480 CONDUIT    258.30     0  03:01      0.83    0.33    0.44
  HS02004792HS02004799 CONDUIT    237.05     0  03:01      0.95    0.15    0.36
  HS02004788HS02004792 CONDUIT    135.43     0  03:01      1.06    0.09    0.18
  HS02004785HS02004788 CONDUIT    103.22     0  03:02      0.71    0.78    0.21
  HS02004777HS02004785 CONDUIT    103.37     0  03:01      0.42    0.13    0.35
  HS02004480HS02004478 CONDUIT    302.29     0  03:01      1.26    1.27    0.34
  HS02004479HS02004480 CONDUIT     46.29     0  03:02      0.32    0.04    0.43
  HS02004862HS02004870 CONDUIT     47.43     0  03:01      0.66    0.05    0.10
  HS02004848HS02004852 CONDUIT     21.94     0  03:01      0.45    0.02    0.07
  HS02004856HS02004862 CONDUIT     32.47     0  03:01      0.48    0.03    0.10
  HS02004852HS02004856 CONDUIT     21.85     0  03:02      0.25    0.02    0.13
  HS02004802HS02004478 CONDUIT    111.52     0  03:02      0.45    0.10    0.36
  HS02004478WS02006287 CONDUIT    413.22     0  03:01      1.75    0.12    0.26
  HS02004817HS02004807 CONDUIT     86.14     0  03:01      0.19    0.05    0.63
  HS02004807HS02004802 CONDUIT    111.37     0  03:01      0.38    0.21    0.42
  YS02001759YS02001757 CONDUIT    575.19     0  02:39      0.73    0.41    1.00
  YS02001762YS02001759 CONDUIT    291.97     0  02:39      0.37    0.34    1.00
  YS02001765YS02001762 CONDUIT    291.30     0  02:39      0.37    0.27    1.00
  YS02001770YS02001767 CONDUIT    290.75     0  02:39      0.37    1.15    1.00
  YS02001774YS02001770 CONDUIT    536.05     0  03:01      0.68    0.34    1.00
  YS02001779YS02001774 CONDUIT    536.26     0  03:01      0.68    0.27    1.00
  YS02001649YS02001757 CONDUIT    827.69     0  02:35      1.05    0.50    1.00
  YS02001767YS02001765 CONDUIT    290.78     0  02:39      0.37    0.37    1.00
  YS02006561YS02001783 CONDUIT   1022.85     0  02:47      2.15    0.53    1.00
  YS02001783YS02001784 CONDUIT   1022.59     0  02:47      2.03    1.41    1.00
  YS02001784YS02001785 CONDUIT   1023.70     0  02:47      2.04    2.38    1.00
  YS02001788YS02001790 CONDUIT   1023.88     0  02:47      2.44    0.75    1.00
  YS02001790YS02001791 CONDUIT   1024.29     0  02:47      2.91    1.11    1.00
  YS02001791YS02001793 CONDUIT   1023.88     0  02:47      5.75    0.44    1.00
  YS02001910YS02001907 CONDUIT    454.34     0  03:01      0.58    0.26    1.00
  YS02001786YS02001788 CONDUIT   1023.83     0  02:47      2.31    1.97    1.00
  YS02001915YS02001910 CONDUIT    454.84     0  03:01      0.59    0.23    1.00
  YS02001918YS02001915 CONDUIT    246.68     0  03:31      0.44    0.14    1.00
  YS02001923YS02001920 CONDUIT    187.16     0  03:30      0.73    0.08    1.00
  YS02001926YS02001923 CONDUIT    165.69     0  02:48      0.83    0.24    0.86
  YS02001929YS02001926 CONDUIT    154.81     0  03:01      0.89    0.07    0.75
  YS02001920YS02001918 CONDUIT    211.39     0  03:30      0.70    0.20    1.00
  YS02001629YS02163301 CONDUIT    211.39     0  02:25      0.27    0.26    1.00
  YS02001619YS02001622 CONDUIT    291.32     0  03:01      0.61    0.43    1.00
  YS02001622YS02001625 CONDUIT    290.49     0  03:00      0.37    0.16    1.00
  YS02001625YS02001629 CONDUIT    190.40     0  02:17      0.24    0.09    1.00
  YS02163301YS02001633 CONDUIT    214.42     0  02:25      0.27    0.20    1.00
  YS02163601YS02164001 CONDUIT    397.92     0  02:35      0.51    0.35    1.00
  YS02164001YS02001641 CONDUIT    397.07     0  02:35      0.51    0.54    1.00
  YS02001641YS02001644 CONDUIT    400.71     0  02:27      0.51    1.30    1.00
  YS02001647YS02001649 CONDUIT    608.58     0  03:01      0.77    0.32    1.00
  YS02006553YS02006556 CONDUIT    703.35     0  03:31      0.90    0.60    1.00
  YS02006556YS02006558 CONDUIT    704.49     0  03:31      0.90    0.56    1.00
  YSB6556YSB1171       CONDUIT     25.76     0  03:03      0.09    0.03    0.70
  YS02001907YS02006553 CONDUIT    703.46     0  03:31      0.78    0.83    1.00
  YS02006558YS02006561 CONDUIT   1022.82     0  02:47      3.62    2.26    1.00
  YS02001633YS02163601 CONDUIT    398.55     0  02:35      0.51    0.42    1.00
  YS02001644YS02001647 CONDUIT    609.09     0  03:01      0.78    0.36    1.00
  YS02001745YS02001748 CONDUIT    535.25     0  02:27      1.47    0.21    0.96
  YS02001748YS02001751 CONDUIT    343.11     0  03:01      1.06    0.17    1.00
  YS02001751YS02001754 CONDUIT    343.64     0  03:01      0.92    0.17    1.00
  YS02001754YS02001757 CONDUIT    342.54     0  03:01      0.44    0.14    1.00
  YS02001882YS02001884 CONDUIT     15.49     0  03:53      0.13    0.02    1.00
  YS02001884YS02001887 CONDUIT     23.17     0  02:21      0.09    0.03    1.00
  YS02001890YS02001895 CONDUIT    495.27     0  03:01      0.63    0.23    1.00
  YS02001895YS02001898 CONDUIT    495.51     0  03:01      0.63    0.86    1.00
  YS02001898YS02001901 CONDUIT    495.75     0  03:01      0.63    0.32    1.00
  YS02001901YS02001904 CONDUIT    496.34     0  03:01      0.63    0.77    1.00
  YS02001904YS02001907 CONDUIT    495.51     0  03:01      0.63    0.17    1.00
  YS02001887YS02001890 CONDUIT    495.42     0  03:01      0.63    0.85    1.00
  YS02001652YS02001649 CONDUIT    382.99     0  03:01      0.63    0.19    1.00
  YS02001655YS02001652 CONDUIT    381.56     0  03:01      0.98    0.19    1.00
  YS02001658YS02001655 CONDUIT    380.34     0  03:01      1.22    0.16    1.00
  YS02001661YS02001658 CONDUIT    595.78     0  02:23      1.55    0.23    1.00
  YS02001664YS02001661 CONDUIT    626.09     0  02:38      1.43    0.20    0.75
  YSB1154YSB6556       CONDUIT     25.82     0  03:01      0.17    0.05    0.59
  YSB1174YSB1171       CONDUIT     20.15     0  03:01      0.07    0.03    0.70
  YSB1171HS02004479    CONDUIT     44.91     0  03:02      0.54    0.03    0.55
  HS02004881HS02006253 CONDUIT     84.54     0  02:56      2.10    0.02    0.53
  YS02001793JiankangQianchi CONDUIT   1023.85     0  02:47     16.89    0.08    1.00
  YS02001757CaochengTiaoxuchi CONDUIT   1576.55     0  02:35      2.02    0.69    1.00
  WSF200WS02003060     CONDUIT    830.34     0  03:05      1.85    0.18    0.42
  1                    CONDUIT   1229.42     0  03:08      3.51    0.43    0.46
  CC-Pump-1            PUMP       200.00     0  03:00              1.00
  CC-Pump-2            PUMP       200.00     0  03:00              1.00
  JK-Pump-1            PUMP       300.00     0  00:00              1.00
  JK-Pump-2            PUMP       683.00     0  00:00              1.00
  XR-Pump-1            PUMP        95.00     0  00:00              1.00
  XR-Pump-2            PUMP        95.00     0  00:00              1.00
  XR-Pump-3            PUMP        95.00     0  00:00              1.00
  XR-Pump-4            PUMP        95.00     0  00:00              1.00
  
  
  ***************************
  Flow Classification Summary
  ***************************
  
  -------------------------------------------------------------------------------------
                      Adjusted    ---------- Fraction of Time in Flow Class ---------- 
                       /Actual         Up    Down  Sub   Sup   Up    Down  Norm  Inlet 
  Conduit               Length    Dry  Dry   Dry   Crit  Crit  Crit  Crit  Ltd   Ctrl  
  -------------------------------------------------------------------------------------
  WS02003066WSF200        1.00   0.02  0.05  0.00  0.00  0.94  0.00  0.00  0.51  0.00
  WS02006287WS02006284    1.00   0.03  0.01  0.00  0.65  0.31  0.00  0.00  0.62  0.00
  WS02006284WS02006280    1.00   0.03  0.00  0.00  0.00  0.00  0.00  0.97  0.00  0.00
  WS02006280WS02006229    1.00   0.03  0.00  0.00  0.00  0.02  0.00  0.95  0.03  0.00
  WS02006229WS02006228    1.00   0.00  0.00  0.00  1.00  0.00  0.00  0.00  0.00  0.00
  WS02006256WS02006235    1.00   0.00  0.00  0.00  1.00  0.00  0.00  0.00  0.00  0.00
  WS02006253WS02006251    1.00   0.01  0.01  0.00  0.97  0.00  0.01  0.00  0.00  0.00
  WS02006252WS02006251    1.00   0.17  0.00  0.00  0.10  0.00  0.73  0.00  0.00  0.00
  WS02006251WS02006249    1.00   0.00  0.00  0.00  1.00  0.00  0.00  0.00  0.21  0.00
  WS02006249WS02006248    1.00   0.00  0.01  0.00  0.92  0.00  0.07  0.00  0.00  0.00
  WS02006248WS02006247    1.00   0.01  0.00  0.00  0.98  0.00  0.00  0.01  0.11  0.00
  WS02006247WS02006245    1.00   0.01  0.00  0.00  0.97  0.00  0.00  0.02  0.00  0.00
  WS02006245WS02006243    1.00   0.00  0.00  0.00  0.96  0.00  0.00  0.04  0.02  0.00
  WS02006243WS02006242    1.00   0.00  0.00  0.00  1.00  0.00  0.00  0.00  0.22  0.00
  WS02006242WS02006240    1.00   0.00  0.00  0.00  1.00  0.00  0.00  0.00  0.00  0.00
  WS02006240WS02006239    1.00   0.00  0.00  0.00  0.95  0.00  0.00  0.04  0.01  0.00
  WS02006239WS02006238    1.00   0.00  0.00  0.00  1.00  0.00  0.00  0.00  0.14  0.00
  WS02006238WS02006235    1.00   0.00  0.00  0.00  1.00  0.00  0.00  0.00  0.00  0.00
  WS02006235WS02006234    1.00   0.00  0.00  0.00  0.96  0.00  0.04  0.00  0.00  0.00
  WS02006234WS02006232    1.00   0.00  0.00  0.00  1.00  0.00  0.00  0.00  0.10  0.00
  WS02006232WS02006231    1.00   0.00  0.00  0.00  1.00  0.00  0.00  0.00  0.00  0.00
  WS02006231WS02006230    1.00   0.00  0.00  0.00  0.73  0.00  0.27  0.00  0.00  0.00
  WS02006230WS02006229    1.00   0.00  0.00  0.00  1.00  0.00  0.00  0.00  0.01  0.00
  WS02006228WS02006109    1.00   0.00  0.00  0.00  1.00  0.00  0.00  0.00  0.00  0.00
  WS02006116WS02004401    1.00   0.01  0.00  0.00  0.99  0.00  0.00  0.00  0.01  0.00
  WS02006115WS02006116    1.00   0.01  0.00  0.00  0.97  0.00  0.00  0.02  0.01  0.00
  WS02006113WS02006111    1.00   0.01  0.00  0.00  0.02  0.98  0.00  0.00  0.15  0.00
  WS02006112WS02006115    1.00   0.01  0.00  0.00  0.99  0.00  0.00  0.00  0.00  0.00
  WS02006111WS02006112    1.00   0.01  0.00  0.00  0.99  0.00  0.00  0.00  0.88  0.00
  WS02006110WS02006113    1.00   0.00  0.00  0.00  0.99  0.00  0.00  0.00  0.00  0.00
  WS02006109WS02006110    1.00   0.00  0.00  0.00  1.00  0.00  0.00  0.00  0.00  0.00
  WS02004411WS02004412    1.00   0.05  0.00  0.00  0.95  0.00  0.00  0.00  0.00  0.00
  WS02004401WS02004402    1.00   0.01  0.00  0.00  0.99  0.00  0.00  0.00  0.01  0.00
  WS02004413WS02003067    1.00   0.05  0.01  0.00  0.00  0.00  0.94  0.00  0.00  0.00
  WS02004412WS02004413    1.00   0.05  0.00  0.00  0.95  0.00  0.00  0.00  0.00  0.00
  WS02004410WS02004411    1.00   0.05  0.00  0.00  0.95  0.00  0.00  0.00  0.00  0.00
  WS02004409WS02004410    1.00   0.05  0.00  0.00  0.95  0.00  0.00  0.00  0.00  0.00
  WS02004407WS02004409    1.00   0.05  0.00  0.00  0.95  0.01  0.00  0.00  0.81  0.00
  WS02004406WS02004407    1.00   0.00  0.05  0.00  0.95  0.00  0.00  0.00  0.00  0.00
  WS02004405WS02004406    1.00   0.00  0.00  0.00  1.00  0.00  0.00  0.00  0.02  0.00
  WS02004404WS02004405    1.00   0.00  0.00  0.00  1.00  0.00  0.00  0.00  0.00  0.00
  WS02004403WS02004404    1.00   0.00  0.01  0.00  0.99  0.00  0.00  0.00  0.02  0.00
  WS02004402WS02004403    1.00   0.01  0.00  0.00  0.99  0.00  0.00  0.00  0.00  0.00
  WS02004139WS02001211    1.00   0.00  0.00  0.00  1.00  0.00  0.00  0.00  0.00  0.00
  WS02004138WS02004139    1.00   0.00  0.00  0.00  1.00  0.00  0.00  0.00  1.00  0.00
  WS02003067WS02003066    1.00   0.06  0.00  0.00  0.94  0.00  0.00  0.00  0.00  0.00
  WS02001213WS02003059    1.00   0.00  0.00  0.00  1.00  0.00  0.00  0.00  0.00  0.00
  WS02001212WS02001213    1.00   0.00  0.00  0.00  0.93  0.00  0.06  0.00  0.00  0.00
  WS02001211WS02001212    1.00   0.00  0.00  0.00  1.00  0.00  0.00  0.00  0.00  0.00
  WS02003072WS02003073    1.00   0.00  0.00  0.00  0.00  0.00  0.00  1.00  0.00  0.00
  WS02003069WS02003072    1.00   0.00  0.00  0.00  1.00  0.00  0.00  0.00  0.09  0.00
  WS02003060WS02003069    1.00   0.00  0.00  0.00  0.99  0.01  0.00  0.00  0.07  0.00
  WS02003059WS02003060    1.00   0.00  0.00  0.00  1.00  0.00  0.00  0.00  0.00  0.00
  HS02004901HS02004770    1.00   0.03  0.00  0.00  0.97  0.00  0.00  0.00  0.00  0.00
  HS02004876HS02004881    1.00   0.01  0.00  0.00  0.93  0.06  0.00  0.00  0.00  0.00
  HS02004870HS02004876    1.00   0.00  0.00  0.00  1.00  0.00  0.00  0.00  0.95  0.00
  HS02004842HS02004848    1.00   0.00  0.03  0.00  0.97  0.00  0.00  0.00  0.55  0.00
  HS02004837HS02004842    1.00   0.00  0.00  0.00  1.00  0.00  0.00  0.00  0.11  0.00
  HS02004830HS02004837    1.00   0.00  0.00  0.00  1.00  0.00  0.00  0.00  0.99  0.00
  HS02004824HS02004830    1.00   0.00  0.00  0.00  1.00  0.00  0.00  0.00  0.00  0.00
  HS02004817HS02004824    1.00   0.00  0.00  0.00  1.00  0.00  0.00  0.00  1.00  0.00
  HS02004770HS02004777    1.00   0.00  0.03  0.00  0.97  0.00  0.00  0.00  0.02  0.00
  HS02004799HS02004480    1.00   0.00  0.01  0.00  0.96  0.00  0.03  0.00  0.00  0.00
  HS02004792HS02004799    1.00   0.00  0.00  0.00  1.00  0.00  0.00  0.00  0.98  0.00
  HS02004788HS02004792    1.00   0.00  0.00  0.00  1.00  0.00  0.00  0.00  0.98  0.00
  HS02004785HS02004788    1.00   0.00  0.00  0.00  1.00  0.00  0.00  0.00  0.00  0.00
  HS02004777HS02004785    1.00   0.00  0.00  0.00  1.00  0.00  0.00  0.00  0.12  0.00
  HS02004480HS02004478    1.00   0.03  0.00  0.00  0.74  0.00  0.00  0.22  0.00  0.00
  HS02004479HS02004480    1.00   0.01  0.00  0.00  0.99  0.00  0.00  0.00  0.11  0.00
  HS02004862HS02004870    1.00   0.00  0.00  0.00  1.00  0.00  0.00  0.00  0.03  0.00
  HS02004848HS02004852    1.00   0.03  0.00  0.00  0.97  0.00  0.00  0.00  0.62  0.00
  HS02004856HS02004862    1.00   0.00  0.04  0.00  0.96  0.00  0.00  0.00  0.83  0.00
  HS02004852HS02004856    1.00   0.03  0.00  0.00  0.97  0.00  0.00  0.00  0.85  0.00
  HS02004802HS02004478    1.00   0.03  0.00  0.00  0.97  0.00  0.00  0.00  0.02  0.00
  HS02004478WS02006287    1.00   0.04  0.00  0.00  0.80  0.17  0.00  0.00  0.64  0.00
  HS02004817HS02004807    1.00   0.00  0.03  0.00  0.97  0.00  0.00  0.00  0.01  0.00
  HS02004807HS02004802    1.00   0.03  0.00  0.00  0.97  0.00  0.00  0.00  0.00  0.00
  YS02001759YS02001757    1.00   0.00  0.00  0.00  1.00  0.00  0.00  0.00  0.16  0.00
  YS02001762YS02001759    1.00   0.00  0.00  0.00  1.00  0.00  0.00  0.00  0.03  0.00
  YS02001765YS02001762    1.00   0.00  0.00  0.00  1.00  0.00  0.00  0.00  0.13  0.00
  YS02001770YS02001767    1.00   0.00  0.00  0.00  1.00  0.00  0.00  0.00  0.00  0.00
  YS02001774YS02001770    1.00   0.00  0.03  0.00  0.97  0.00  0.00  0.00  0.02  0.00
  YS02001779YS02001774    1.00   0.00  0.00  0.00  1.00  0.00  0.00  0.00  0.18  0.00
  YS02001649YS02001757    1.00   0.00  0.00  0.00  1.00  0.00  0.00  0.00  0.16  0.00
  YS02001767YS02001765    1.00   0.00  0.00  0.00  1.00  0.00  0.00  0.00  0.00  0.00
  YS02006561YS02001783    1.00   0.04  0.00  0.00  0.30  0.66  0.00  0.00  0.47  0.00
  YS02001783YS02001784    1.00   0.00  0.04  0.00  0.96  0.00  0.00  0.00  0.00  0.00
  YS02001784YS02001785    1.00   0.00  0.00  0.00  1.00  0.00  0.00  0.00  0.17  0.00
  YS02001788YS02001790    1.00   0.00  0.00  0.00  0.34  0.66  0.00  0.00  0.41  0.00
  YS02001790YS02001791    1.00   0.00  0.00  0.00  0.32  0.68  0.00  0.00  0.48  0.00
  YS02001791YS02001793    1.00   0.00  0.00  0.00  0.36  0.64  0.00  0.00  0.02  0.00
  YS02001910YS02001907    1.00   0.00  0.00  0.00  0.99  0.00  0.00  0.01  0.12  0.00
  YS02001786YS02001788    1.00   0.00  0.00  0.00  0.33  0.67  0.00  0.00  0.00  0.00
  YS02001915YS02001910    1.00   0.00  0.00  0.00  0.99  0.01  0.00  0.00  0.15  0.00
  YS02001918YS02001915    1.00   0.00  0.00  0.00  0.99  0.00  0.00  0.00  0.55  0.00
  YS02001923YS02001920    1.00   0.00  0.00  0.00  1.00  0.00  0.00  0.00  0.84  0.00
  YS02001926YS02001923    1.00   0.00  0.02  0.00  0.10  0.00  0.88  0.00  0.00  0.00
  YS02001929YS02001926    1.00   0.00  0.03  0.00  0.97  0.00  0.00  0.00  0.76  0.00
  YS02001920YS02001918    1.00   0.00  0.00  0.00  1.00  0.00  0.00  0.00  0.00  0.00
  YS02001629YS02163301    1.00   0.04  0.00  0.00  0.96  0.00  0.00  0.00  0.00  0.00
  YS02001619YS02001622    1.00   0.03  0.00  0.00  0.97  0.00  0.00  0.00  0.00  0.00
  YS02001622YS02001625    1.00   0.03  0.00  0.00  0.97  0.00  0.00  0.00  0.04  0.00
  YS02001625YS02001629    1.00   0.03  0.01  0.00  0.94  0.00  0.02  0.00  0.00  0.00
  YS02163301YS02001633    1.00   0.00  0.04  0.00  0.96  0.00  0.00  0.00  0.00  0.00
  YS02163601YS02164001    1.00   0.00  0.02  0.00  0.98  0.00  0.00  0.00  0.00  0.00
  YS02164001YS02001641    1.00   0.00  0.02  0.00  0.98  0.00  0.00  0.00  0.06  0.00
  YS02001641YS02001644    1.00   0.00  0.00  0.00  1.00  0.00  0.00  0.00  0.00  0.00
  YS02001647YS02001649    1.00   0.00  0.04  0.00  0.96  0.00  0.00  0.00  0.01  0.00
  YS02006553YS02006556    1.00   0.00  0.00  0.00  1.00  0.00  0.00  0.00  0.03  0.00
  YS02006556YS02006558    1.00   0.00  0.00  0.00  1.00  0.00  0.00  0.00  0.00  0.00
  YSB6556YSB1171          1.00   0.01  0.02  0.00  0.97  0.00  0.00  0.00  0.00  0.00
  YS02001907YS02006553    1.00   0.00  0.01  0.00  0.99  0.00  0.00  0.00  0.00  0.00
  YS02006558YS02006561    1.00   0.04  0.00  0.00  0.11  0.85  0.00  0.00  0.48  0.00
  YS02001633YS02163601    1.00   0.00  0.00  0.00  1.00  0.00  0.00  0.00  0.15  0.00
  YS02001644YS02001647    1.00   0.00  0.04  0.00  0.96  0.00  0.00  0.00  0.00  0.00
  YS02001745YS02001748    1.00   0.00  0.00  0.00  0.92  0.01  0.00  0.07  0.04  0.00
  YS02001748YS02001751    1.00   0.00  0.00  0.00  0.97  0.03  0.00  0.00  0.15  0.00
  YS02001751YS02001754    1.00   0.00  0.00  0.00  0.95  0.00  0.00  0.05  0.02  0.00
  YS02001754YS02001757    1.00   0.00  0.00  0.00  1.00  0.00  0.00  0.00  0.18  0.00
  YS02001882YS02001884    1.00   0.04  0.00  0.00  0.96  0.00  0.00  0.00  0.00  0.00
  YS02001884YS02001887    1.00   0.02  0.01  0.00  0.97  0.00  0.00  0.00  0.00  0.00
  YS02001890YS02001895    1.00   0.00  0.04  0.00  0.96  0.00  0.00  0.00  0.00  0.00
  YS02001895YS02001898    1.00   0.04  0.00  0.00  0.95  0.00  0.01  0.00  0.00  0.00
  YS02001898YS02001901    1.00   0.04  0.00  0.00  0.96  0.00  0.00  0.00  0.01  0.00
  YS02001901YS02001904    1.00   0.04  0.00  0.00  0.96  0.00  0.00  0.00  0.00  0.00
  YS02001904YS02001907    1.00   0.00  0.04  0.00  0.96  0.00  0.00  0.00  0.00  0.00
  YS02001887YS02001890    1.00   0.00  0.00  0.00  0.99  0.00  0.01  0.00  0.00  0.00
  YS02001652YS02001649    1.00   0.00  0.00  0.00  1.00  0.00  0.00  0.00  0.16  0.00
  YS02001655YS02001652    1.00   0.00  0.00  0.00  0.95  0.00  0.00  0.05  0.02  0.00
  YS02001658YS02001655    1.00   0.00  0.03  0.00  0.94  0.03  0.00  0.00  0.08  0.00
  YS02001661YS02001658    1.00   0.03  0.00  0.00  0.92  0.05  0.00  0.00  0.08  0.00
  YS02001664YS02001661    1.00   0.03  0.00  0.00  0.93  0.04  0.00  0.00  0.19  0.00
  YSB1154YSB6556          1.00   0.03  0.00  0.00  0.97  0.00  0.00  0.00  0.01  0.00
  YSB1174YSB1171          1.00   0.01  0.01  0.00  0.98  0.00  0.00  0.00  0.00  0.00
  YSB1171HS02004479       1.00   0.01  0.00  0.00  0.99  0.00  0.00  0.00  0.10  0.00
  HS02004881HS02006253    1.00   0.01  0.00  0.00  0.75  0.01  0.00  0.23  0.56  0.00
  YS02001793JiankangQianchi    1.00   0.00  0.00  0.00  0.69  0.31  0.00  0.00  0.41  0.00
  YS02001757CaochengTiaoxuchi    1.00   0.00  0.06  0.00  0.94  0.00  0.00  0.00  0.00  0.00
  WSF200WS02003060        1.00   0.00  0.02  0.00  0.96  0.03  0.00  0.00  0.37  0.00
  1                       1.00   0.00  0.00  0.00  0.00  1.00  0.00  0.00  0.51  0.00
  
  
  *************************
  Conduit Surcharge Summary
  *************************
  
  ----------------------------------------------------------------------------
                                                           Hours        Hours 
                         --------- Hours Full --------   Above Full   Capacity
  Conduit                Both Ends  Upstream  Dnstream   Normal Flow   Limited
  ----------------------------------------------------------------------------
  WS02006229WS02006228        3.62      3.74      3.62      5.07         3.62
  WS02006256WS02006235        6.01      6.02      6.71      4.28         0.01
  WS02006253WS02006251        1.37      1.37      1.41      0.01         0.01
  WS02006252WS02006251        1.46      1.46      2.18      1.95         0.01
  WS02006251WS02006249        1.38      1.38      1.42      1.26         0.97
  WS02006249WS02006248        1.37      1.38      1.42      3.97         0.01
  WS02006248WS02006247        1.42      1.42      1.62      0.01         0.01
  WS02006247WS02006245        1.59      1.68      1.59      4.28         1.56
  WS02006245WS02006243        1.65      1.66      1.88      0.34         0.18
  WS02006243WS02006242        2.01      2.01      2.83      0.01         0.01
  WS02006242WS02006240        2.71      2.71      3.02      2.05         0.01
  WS02006240WS02006239        2.75      2.76      2.85      0.81         0.58
  WS02006239WS02006238        3.00      3.02      3.14      0.89         0.68
  WS02006238WS02006235        3.11      3.11      3.28      0.01         0.02
  WS02006235WS02006234        2.80      2.80      3.02      5.93         0.01
  WS02006234WS02006232        2.93      2.93      3.43      0.64         0.64
  WS02006232WS02006231        1.58      1.58      3.43      0.86         0.01
  WS02006231WS02006230        1.32      1.32      1.69      5.99         0.01
  WS02006230WS02006229        4.43      4.90      4.43      6.07         4.43
  WS02006228WS02006109        3.69      3.99      3.69      5.95         3.69
  WS02006116WS02004401        0.33      0.33      0.34      0.28         0.28
[...]
  YS02001765YS02001762        5.84      5.84      5.87      0.01         0.01
  YS02001770YS02001767        5.81      5.81      5.81      0.20         0.83
  YS02001774YS02001770        5.80      5.80      5.86      0.01         0.01
  YS02001779YS02001774        5.67      5.67      5.86      0.01         0.01
  YS02001649YS02001757        5.88      5.88      5.98      0.01         0.01
  YS02001767YS02001765        5.81      5.81      5.84      0.01         0.01
  YS02006561YS02001783        0.74      0.74      1.29      0.01         0.01
  YS02001783YS02001784        1.27      1.29      1.27      1.30         1.12
  YS02001784YS02001785        1.22      1.27      1.22      2.40         1.22
  YS02001788YS02001790        1.17      1.17      1.88      0.01         0.01
  YS02001790YS02001791        1.88      1.88      1.97      0.93         0.90
  YS02001791YS02001793        1.97      1.97      2.32      0.01         0.01
  YS02001910YS02001907        1.12      1.12      1.75      0.01         0.01
  YS02001786YS02001788        1.16      1.22      1.17      1.94         1.16
  YS02001915YS02001910        0.93      0.93      1.12      0.01         0.01
  YS02001918YS02001915        0.70      0.70      0.93      0.01         0.01
  YS02001923YS02001920        0.53      0.53      0.74      0.01         0.01
  YS02001920YS02001918        0.70      0.70      0.74      0.01         0.01
  YS02001629YS02163301        5.80      5.80      5.81      0.01         0.01
  YS02001619YS02001622        5.47      5.47      5.51      0.01         0.01
  YS02001622YS02001625        5.51      5.51      5.76      0.01         0.01
  YS02001625YS02001629        5.48      5.48      5.76      0.01         0.01
  YS02163301YS02001633        5.81      5.81      5.84      0.01         0.01
  YS02163601YS02164001        5.83      5.83      5.87      0.01         0.01
  YS02164001YS02001641        5.83      5.83      5.85      0.01         0.03
  YS02001641YS02001644        5.85      5.85      5.85      1.53         1.57
  YS02001647YS02001649        5.75      5.75      5.88      0.01         0.01
  YS02006553YS02006556        1.35      1.35      1.83      0.01         0.01
  YS02006556YS02006558        1.54      1.54      1.90      0.01         0.01
  YS02001907YS02006553        2.41      2.41      2.63      0.01         0.01
  YS02006558YS02006561        0.94      1.32      0.94      2.23         0.94
  YS02001633YS02163601        5.83      5.83      5.87      0.01         0.01
  YS02001644YS02001647        5.75      5.75      5.85      0.01         0.01
  YS02001745YS02001748        0.01      0.01      5.30      0.01         0.01
  YS02001748YS02001751        5.35      5.35      5.49      0.01         0.01
  YS02001751YS02001754        5.49      5.49      5.69      0.01         0.01
  YS02001754YS02001757        5.74      5.74      5.98      0.01         0.01
  YS02001882YS02001884        0.94      0.94      0.97      0.01         0.01
  YS02001884YS02001887        1.01      1.01      1.04      0.01         0.01
  YS02001890YS02001895        0.91      0.91      1.13      0.01         0.01
  YS02001895YS02001898        0.90      0.90      0.91      0.01         0.01
  YS02001898YS02001901        0.92      0.92      1.01      0.01         0.01
  YS02001901YS02001904        0.98      0.98      1.01      0.01         0.01
  YS02001904YS02001907        0.98      0.98      1.86      0.01         0.01
  YS02001887YS02001890        1.07      1.07      1.10      0.01         0.01
  YS02001652YS02001649        5.76      5.76      5.88      0.01         0.01
  YS02001655YS02001652        5.50      5.50      5.73      0.01         0.01
  YS02001658YS02001655        5.33      5.33      5.50      0.01         0.01
  YS02001661YS02001658        0.19      0.19      5.33      0.01         0.01
  YS02001664YS02001661        0.01      0.01      1.20      0.01         0.01
  HS02004881HS02006253        0.01      0.01      1.02      0.01         0.01
  YS02001793JiankangQianchi        2.23      2.23      3.95      0.01         0.01
  YS02001757CaochengTiaoxuchi        5.21      5.21      5.98      0.01         0.01
  
  
  ***************
  Pumping Summary
  ***************
  
  ---------------------------------------------------------------------------------------------------------
                                                  Min       Avg       Max     Total     Power    % Time Off
                        Percent   Number of      Flow      Flow      Flow    Volume     Usage    Pump Curve
  Pump                 Utilized   Start-Ups       LPS       LPS       LPS  10^6 ltr     Kw-hr    Low   High
  ---------------------------------------------------------------------------------------------------------
  CC-Pump-1               61.70           2      0.00    179.13    200.00     3.060      3.08    0.0    0.0
  CC-Pump-2               36.16           6      0.00    104.38    200.00     1.320      1.77    0.0    0.0
  JK-Pump-1               61.70           5      0.00    228.58    300.00     3.658     53.65    0.0    0.0
  JK-Pump-2               55.32           5      0.00    420.46    683.00     6.100     84.78    0.0   96.6
  XR-Pump-1               97.87           2      0.00     94.37     95.00     2.565     25.42    0.0    0.0
  XR-Pump-2               97.87           2      0.00     92.92     95.00     2.508     24.26    0.0    0.0
  XR-Pump-3               95.74           3      0.00     92.48     95.00     2.394     22.01    0.0    0.0
  XR-Pump-4               95.74           3      0.00     92.48     95.00     2.394     22.01    0.0    0.0
  
  
  ***************************
  Link Pollutant Load Summary
  ***************************
  
  ------------------------------------------------------------------------------------------
                                 COD            SS            TN            TP         NH4-N
  Link                            kg            kg            kg            kg            kg
  ------------------------------------------------------------------------------------------
  WS02003066WSF200           828.098      1522.982        21.846         1.906        11.513
  WS02006287WS02006284       268.081       498.262         9.346         0.943         5.214
  WS02006284WS02006280       268.570       499.051         9.394         0.949         5.243
  WS02006280WS02006229       268.537       498.989         9.392         0.948         5.242
  WS02006229WS02006228       833.826      1533.442        21.509         1.847        11.268
  WS02006256WS02006235       201.036       367.275         4.477         0.350         2.269
  WS02006253WS02006251        51.013        98.364         1.154         0.087         0.576
  WS02006252WS02006251       368.165       669.147         7.628         0.543         3.739
  WS02006251WS02006249       412.649       755.759         8.669         0.624         4.263
  WS02006249WS02006248       373.190       683.163         7.844         0.564         3.858
  WS02006248WS02006247       372.936       682.740         7.840         0.564         3.857
  WS02006247WS02006245       372.436       681.843         7.828         0.563         3.851
  WS02006245WS02006243       371.852       680.881         7.811         0.562         3.842
  WS02006243WS02006242       371.676       680.580         7.810         0.562         3.841
  WS02006242WS02006240       370.988       679.359         7.796         0.561         3.835
  WS02006240WS02006239       370.877       679.125         7.800         0.562         3.838
  WS02006239WS02006238       371.799       680.613         7.845         0.567         3.864
  WS02006238WS02006235       372.211       681.162         7.868         0.569         3.878
  WS02006235WS02006234       569.457      1041.869        12.219         0.907         6.078
  WS02006234WS02006232       568.831      1040.740        12.211         0.907         6.074
  WS02006232WS02006231       568.087      1039.425        12.193         0.905         6.066
  WS02006231WS02006230       567.471      1038.317        12.181         0.904         6.060
  WS02006230WS02006229       566.279      1036.213        12.150         0.902         6.044
  WS02006228WS02006109       832.640      1531.368        21.474         1.844        11.249
  WS02006116WS02004401       842.203      1548.053        22.201         1.935        11.697
  WS02006115WS02006116       843.769      1550.809        22.247         1.939        11.722
  WS02006113WS02006111       837.926      1539.371        22.185         1.936        11.701
  WS02006112WS02006115       845.203      1553.336        22.296         1.944        11.749
  WS02006111WS02006112       837.345      1538.316        22.171         1.935        11.694
  WS02006110WS02006113       838.523      1540.407        22.206         1.938        11.713
  WS02006109WS02006110       839.802      1542.639        22.254         1.943        11.740
  WS02004411WS02004412       831.434      1528.874        21.962         1.918        11.578
  WS02004401WS02004402       840.677      1545.366        22.150         1.930        11.669
  WS02004413WS02003067       828.777      1524.189        21.862         1.908        11.521
  WS02004412WS02004413       830.192      1526.669        21.927         1.915        11.559
  WS02004410WS02004411       832.486      1530.736        21.991         1.920        11.593
  WS02004409WS02004410       833.533      1532.588        22.023         1.923        11.610
  WS02004407WS02004409       834.478      1534.258        22.046         1.925        11.622
  WS02004406WS02004407       834.839      1534.886        22.051         1.925        11.624
  WS02004405WS02004406       836.730      1538.171        22.132         1.934        11.671
  WS02004404WS02004405       838.191      1540.805        22.145         1.933        11.674
  WS02004403WS02004404       837.930      1540.526        22.064         1.922        11.621
  WS02004402WS02004403       839.198      1542.764        22.106         1.926        11.645
  WS02004139WS02001211      1393.272      2295.572       115.836        14.185        71.534
  WS02004138WS02004139      1399.756      2306.280       116.360        14.249        71.857
  WS02003067WS02003066       828.251      1523.256        21.851         1.907        11.516
  WS02001213WS02003059      1426.122      2347.409       119.204        14.610        73.649
  WS02001212WS02001213      1435.410      2362.658       119.982        14.705        74.130
  WS02001211WS02001212      1437.468      2366.006       120.162        14.727        74.242
  WS02003072WS02003073      2354.010      4029.080       150.957        17.759        91.367
  WS02003069WS02003072      2359.114      4037.416       151.391        17.813        91.637
  WS02003060WS02003069      2361.879      4042.119       151.562        17.833        91.739
  WS02003059WS02003060      1423.168      2342.468       118.984        14.583        73.514
  HS02004901HS02004770        10.271        19.479         0.196         0.015         0.091
  HS02004876HS02004881        37.321        72.586         0.843         0.062         0.416
  HS02004870HS02004876        28.162        54.632         0.678         0.051         0.338
  HS02004842HS02004848         5.467        10.277         0.115         0.008         0.053
  HS02004837HS02004842        10.072        17.581         0.584         0.067         0.347
  HS02004830HS02004837        65.640       112.706         4.556         0.546         2.785
  HS02004824HS02004830        66.391       113.910         4.628         0.555         2.830
  HS02004817HS02004824        88.210       156.983         5.083         0.584         3.051
  HS02004770HS02004777        39.298        75.470         0.819         0.055         0.377
  HS02004799HS02004480       131.421       245.395         3.680         0.335         1.933
  HS02004792HS02004799       119.095       220.681         3.497         0.327         1.853
  HS02004788HS02004792        68.401       126.867         2.388         0.235         1.309
  HS02004785HS02004788        40.737        77.768         0.969         0.074         0.471
  HS02004777HS02004785        40.063        76.673         0.909         0.067         0.434
  HS02004480HS02004478       165.964       312.623         4.243         0.374         2.195
  HS02004479HS02004480        38.145        72.975         0.884         0.079         0.462
  HS02004862HS02004870        21.017        40.120         0.536         0.043         0.270
  HS02004848HS02004852         8.058        15.281         0.167         0.011         0.077
  HS02004856HS02004862        14.073        27.342         0.284         0.019         0.133
  HS02004852HS02004856         8.065        15.292         0.167         0.011         0.077
  HS02004802HS02004478       102.892       186.900         5.163         0.576         3.055
  HS02004478WS02006287       268.276       498.588         9.363         0.945         5.224
  HS02004817HS02004807        86.891       154.868         4.957         0.568         2.972
  HS02004807HS02004802       103.118       187.253         5.194         0.580         3.075
  YS02001759YS02001757       356.301       649.596         7.137         0.494         3.488
  YS02001762YS02001759       140.526       255.545         3.074         0.217         1.530
  YS02001765YS02001762       140.008       254.739         3.087         0.219         1.539
  YS02001770YS02001767       137.426       250.561         2.824         0.183         1.371
  YS02001774YS02001770       157.822       303.550         3.067         0.200         1.480
  YS02001779YS02001774       156.826       301.511         3.153         0.214         1.542
  YS02001649YS02001757       289.842       514.266         5.855         0.408         2.812
  YS02001767YS02001765       139.866       254.489         3.103         0.220         1.548
  YS02006561YS02001783       940.043      1724.397        19.895         1.492         9.926
  YS02001783YS02001784       939.924      1724.212        19.890         1.491         9.924
  YS02001784YS02001785       947.213      1735.878        20.603         1.581        10.369
  YS02001788YS02001790       947.783      1736.798        20.675         1.590        10.415
  YS02001790YS02001791       948.836      1738.487        20.782         1.604        10.483
  YS02001791YS02001793       948.751      1738.349        20.778         1.603        10.480
  YS02001910YS02001907       329.993       598.993         8.215         0.640         4.243
  YS02001786YS02001788       947.386      1736.154        20.630         1.584        10.387
  YS02001915YS02001910       330.069       599.110         8.171         0.634         4.213
  YS02001918YS02001915       157.248       272.923         4.588         0.427         2.499
  YS02001923YS02001920       136.669       239.817         2.623         0.182         1.272
  YS02001926YS02001923       136.394       239.399         2.586         0.178         1.248
  YS02001929YS02001926       136.170       239.028         2.555         0.174         1.228
  YS02001920YS02001918       156.543       271.600         4.543         0.422         2.472
  YS02001629YS02163301       103.583       183.540         2.172         0.140         1.013
  YS02001619YS02001622       146.398       262.937         3.031         0.197         1.414
  YS02001622YS02001625       145.263       261.149         3.003         0.195         1.401
  YS02001625YS02001629       104.672       185.342         2.196         0.142         1.024
  YS02163301YS02001633       103.318       183.093         2.165         0.140         1.010
  YS02163601YS02164001       362.114       646.333         7.117         0.503         3.404
  YS02164001YS02001641       361.632       645.521         7.098         0.501         3.393
  YS02001641YS02001644       361.876       645.858         7.097         0.500         3.392
  YS02001647YS02001649       341.260       613.712         6.801         0.475         3.249
  YS02006553YS02006556       661.559      1208.040        14.297         1.098         7.207
  YS02006556YS02006558       661.507      1207.935        14.265         1.094         7.186
  YSB6556YSB1171              21.952        42.197         0.451         0.038         0.229
  YS02001907YS02006553       661.649      1208.229        14.310         1.100         7.216
  YS02006558YS02006561       940.020      1724.346        19.894         1.492         9.925
  YS02001633YS02163601       362.808       647.409         7.097         0.499         3.388
  YS02001644YS02001647       346.581       623.361         6.887         0.481         3.288
  YS02001745YS02001748       208.864       384.539         4.609         0.315         2.286
  YS02001748YS02001751       207.627       382.057         4.697         0.330         2.349
  YS02001751YS02001754       206.653       380.460         4.679         0.329         2.341
  YS02001754YS02001757       207.403       381.585         4.842         0.351         2.447
  YS02001882YS02001884         3.048         5.269         0.061         0.005         0.030
  YS02001884YS02001887         6.809        12.036         0.133         0.010         0.066
  YS02001890YS02001895       389.400       720.536         7.188         0.539         3.508
  YS02001895YS02001898       389.233       720.314         7.182         0.539         3.504
  YS02001898YS02001901       389.040       719.989         7.177         0.538         3.502
  YS02001901YS02001904       388.873       719.748         7.184         0.540         3.507
  YS02001904YS02001907       389.116       720.132         7.238         0.547         3.541
  YS02001887YS02001890       390.209       721.749         7.243         0.546         3.541
  YS02001652YS02001649       150.754       276.095         3.072         0.221         1.441
  YS02001655YS02001652       151.274       276.933         3.086         0.222         1.448
  YS02001658YS02001655       150.805       276.184         3.000         0.211         1.392
  YS02001661YS02001658       154.586       282.923         3.077         0.216         1.427
  YS02001664YS02001661       176.439       319.421         3.560         0.249         1.648
  YSB1154YSB6556              21.533        41.530         0.402         0.032         0.198
  YSB1174YSB1171              14.654        28.290         0.298         0.024         0.149
  YSB1171HS02004479           38.103        72.908         0.887         0.079         0.465
  HS02004881HS02006253        42.479        83.006         0.930         0.068         0.457
  YS02001793JiankangQianchi       949.305      1739.246        20.810         1.607        10.499
  YS02001757CaochengTiaoxuchi       623.449      1122.082        13.068         0.925         6.408
  WSF200WS02003060           827.934      1522.659        21.857         1.908        11.521
  1                         2359.606      4037.363       151.729        17.860        91.860
  CC-Pump-1                  257.656       468.566         5.332         0.379         2.613
  CC-Pump-2                  110.515       200.595         2.295         0.164         1.126
  JK-Pump-1                  261.104       482.403         5.549         0.421         2.778
  JK-Pump-2                  494.456       920.240        10.445         0.794         5.227
  XR-Pump-1                  366.464       603.113        30.630         3.754        18.923
  XR-Pump-2                  358.896       590.959        29.930         3.667        18.488
  XR-Pump-3                  339.130       559.268        28.064         3.434        17.325
  XR-Pump-4                  339.130       559.268        28.064         3.434        17.325
  

  Analysis begun on:  Wed Jul 14 09:42:01 2021
  Analysis ended on:  Wed Jul 14 09:42:04 2021
  Total elapsed time: 00:00:03