
  EPA STORM WATER MANAGEMENT MODEL - VERSION 5.1 (Build 5.3.0.dev0)
  --------------------------------------------------------------

  WARNING 04: minimum elevation drop used for Conduit WS02004404WS02004405
  WARNING 03: negative offset ignored for Link YS02001904YS02001907
  
  *********************************************************
  NOTE: The summary statistics displayed in this report are
  based on results found at every computational time step,  
  not just on results from each reporting time step.
  *********************************************************
  
  ****************
  Analysis Options
  ****************
  Flow Units ............... LPS
  Process Models:
    Rainfall/Runoff ........ YES
    RDII ................... NO
    Snowmelt ............... NO
    Groundwater ............ NO
    Flow Routing ........... YES
    Ponding Allowed ........ NO
    Water Quality .......... YES
  Infiltration Method ...... HORTON
  Flow Routing Method ...... DYNWAVE
  Surcharge Method ......... EXTRAN
  Starting Date ............ 08/28/2015 08:00:00
  Ending Date .............. 08/28/2015 15:50:00
  Antecedent Dry Days ...... 8.0
  Report Time Step ......... 00:01:00
  Wet Time Step ............ 00:01:00
  Dry Time Step ............ 00:01:00
  Routing Time Step ........ 5.00 sec
  Variable Time Step ....... YES
  Maximum Trials ........... 8
  Number of Threads ........ 4
  Head Tolerance ........... 0.001500 m
  
  
  **************************        Volume         Depth
  Runoff Quantity Continuity     hectare-m            mm
  **************************     ---------       -------
  Total Precipitation ......         5.556        12.164
  Evaporation Loss .........         0.000         0.000
  Infiltration Loss ........         1.002         2.194
  Surface Runoff ...........         3.688         8.075
  Final Storage ............         0.866         1.897
  Continuity Error (%) .....        -0.019
  
  
  **************************           COD            SS            TN            TP         NH4-N
  Runoff Quality Continuity             kg            kg            kg            kg            kg
  **************************    ----------    ----------    ----------    ----------    ----------
  Initial Buildup ..........     41378.656     70582.865      1804.177       168.684      1032.807
  Surface Buildup ..........        19.275        34.271         2.335         0.213         1.362
  Wet Deposition ...........         0.000         0.000         0.000         0.000         0.000
  Sweeping Removal .........         0.000         0.000         0.000         0.000         0.000
  Infiltration Loss ........        84.023       157.502         1.599         0.111         0.761
  BMP Removal ..............         0.000         0.000         0.000         0.000         0.000
  Surface Runoff ...........      3122.074      5752.154        60.620         4.098        28.771
  Remaining Buildup ........     38190.779     64705.500      1744.271       164.686      1004.628
  Continuity Error (%) .....         0.003         0.003         0.001         0.001         0.001
  
  
  **************************        Volume        Volume
  Flow Routing Continuity        hectare-m      10^6 ltr
  **************************     ---------     ---------
  Dry Weather Inflow .......         0.616         6.165
  Wet Weather Inflow .......         3.687        36.871
  Groundwater Inflow .......         0.000         0.000
  RDII Inflow ..............         0.000         0.000
  External Inflow ..........         0.102         1.024
  External Outflow .........         2.046        20.457
  Flooding Loss ............         1.947        19.473
  Evaporation Loss .........         0.000         0.000
  Exfiltration Loss ........         0.000         0.000
  Initial Stored Volume ....         0.076         0.761
  Final Stored Volume ......         0.630         6.305
  Continuity Error (%) .....        -3.156
  
  
  **************************           COD            SS            TN            TP         NH4-N
  Quality Routing Continuity            kg            kg            kg            kg            kg
  **************************    ----------    ----------    ----------    ----------    ----------
  Dry Weather Inflow .......      1541.201      2465.922       147.955        18.494        92.472
  Wet Weather Inflow .......      3121.341      5750.918        60.604         4.097        28.764
  Groundwater Inflow .......         0.000         0.000         0.000         0.000         0.000
  RDII Inflow ..............         0.000         0.000         0.000         0.000         0.000
  External Inflow ..........       183.418       293.469        17.608         2.201        11.005
  External Outflow .........      2376.382      4066.014       151.761        17.836        91.813
  Flooding Loss ............      1783.671      3271.325        47.605         4.232        25.236
  Exfiltration Loss ........         0.000         0.000         0.000         0.000         0.000
  Mass Reacted .............         0.000         0.000         0.000         0.000         0.000
  Initial Stored Mass ......         0.000         0.000         0.000         0.000         0.000
  Final Stored Mass ........       498.261       847.518        22.577         2.411        13.095
  Continuity Error (%) .....         3.872         3.824         1.868         1.264         1.586
  
  
  *************************
  Highest Continuity Errors
  *************************
  Node HS02004842 (14.53%)
  Node JK-storage (-14.28%)
  Node YS02001884 (10.68%)
  Node WS02006253 (3.09%)
  Node YSB1171 (2.74%)
  
  
  ***************************
  Time-Step Critical Elements
  ***************************
  Link WS02006252WS02006251 (59.19%)
  Link WS02006280WS02006229 (10.43%)
  Link YS02001793JiankangQianchi (8.12%)
  Link WS02004404WS02004405 (6.39%)
  Link WS02006238WS02006235 (3.95%)
  
  
  ********************************
  Highest Flow Instability Indexes
  ********************************
  Link WS02006113WS02006111 (42)
  Link WS02006238WS02006235 (39)
  Link YS02163601YS02164001 (39)
  Link YS02001629YS02163301 (38)
  Link YS02163301YS02001633 (38)
  
  
  *************************
  Routing Time Step Summary
  *************************
  Minimum Time Step           :     0.50 sec
  Average Time Step           :     1.19 sec
  Maximum Time Step           :     5.00 sec
  Percent in Steady State     :    -0.00
  Average Iterations per Step :     4.67
  Percent Not Converging      :    25.09
  
  
  ***************************
  Subcatchment Runoff Summary
  ***************************
  
  ------------------------------------------------------------------------------------------------------------------------------
                            Total      Total      Total      Total     Imperv       Perv      Total       Total     Peak  Runoff
                           Precip      Runon       Evap      Infil     Runoff     Runoff     Runoff      Runoff   Runoff   Coeff
  Subcatchment                 mm         mm         mm         mm         mm         mm         mm    10^6 ltr      LPS
  ------------------------------------------------------------------------------------------------------------------------------
  sub0                      12.16       0.00       0.00       0.65      11.27       0.20      11.47        0.01     1.99   0.943
  sub1                      12.16       0.00       0.00       1.12      10.73       0.22      10.95        0.07    14.96   0.900
  sub2                      12.16       0.00       0.00       4.23       7.58       0.27       7.85        0.07    15.08   0.646
  sub3                      12.16       0.00       0.00       4.29       7.54       0.21       7.75        0.17    34.61   0.637
  sub4                      12.16       0.00       0.00       1.19      10.57       0.14      10.71        0.22    42.34   0.881
  sub5                      12.16       0.00       0.00       0.69      11.21       0.16      11.38        0.13    26.18   0.935
  sub7                      12.16       0.00       0.00       0.88      11.01       0.22      11.22        0.04     7.95   0.923
  sub8                      12.16       0.00       0.00       0.89      11.00       0.21      11.20        0.07    14.89   0.921
  sub9                      12.16       0.00       0.00       0.89      10.99       0.21      11.20        0.05    11.18   0.921
  sub10                     12.16       0.00       0.00       0.79      11.10       0.18      11.28        0.12    25.49   0.928
  sub11                     12.16       0.00       0.00       0.78      11.12       0.19      11.31        0.13    27.35   0.930
  sub12                     12.16       0.00       0.00       1.27      10.53       0.31      10.85        0.09    20.52   0.892
  sub14                     12.16       0.00       0.00       0.89      10.99       0.20      11.20        0.11    22.08   0.920
  sub15                     12.16       0.00       0.00       3.28       8.45       0.37       8.82        0.15    32.49   0.725
  sub16                     12.16       0.00       0.00       3.51       8.11       0.50       8.61        0.09    20.36   0.708
  sub17                     12.16       0.00       0.00       3.41       8.23       0.48       8.71        0.07    16.72   0.716
  sub22                     12.16       0.00       0.00       4.80       6.89       0.43       7.32        0.46   102.62   0.602
  sub23                     12.16       0.00       0.00       4.05       7.62       0.45       8.07        0.38    85.35   0.663
  sub60                     12.16       0.00       0.00       1.42       8.82       0.04       8.86        2.69   336.84   0.729
  sub61                     12.16       0.00       0.00       2.01       8.94       0.06       9.00        2.78   399.45   0.740
  sub62                     12.16       0.00       0.00       0.92       9.73       0.05       9.78        3.01   415.79   0.804
  sub63                     12.16       0.00       0.00       3.46       7.82       0.06       7.88        2.39   361.21   0.648
  sub64                     12.16       0.00       0.00       1.78       8.47       0.04       8.51        2.59   320.97   0.699
  sub65                     12.16       0.00       0.00       1.54       8.61       0.04       8.65        2.66   326.54   0.711
  sub66                     12.16       0.00       0.00       3.49       7.26       0.04       7.30        2.24   290.53   0.600
  sub67                     12.16       0.00       0.00       0.91      10.24       0.07      10.31        3.18   494.23   0.848
  sub68                     12.16       0.00       0.00       1.64       9.40       0.06       9.46        2.91   432.52   0.778
  sub69                     12.16       0.00       0.00       1.73       9.72       0.09       9.82        2.29   383.95   0.807
  sub70                     12.16      10.02       0.00       6.98      13.09       0.56      13.65        3.12   394.93   0.615
  sub71                     12.16       0.00       0.00       0.93       9.48       0.05       9.53        2.25   296.34   0.783
  sub72                     12.16       0.00       0.00       0.83       7.62       0.02       7.64        1.56   151.13   0.628
  1                         12.16      13.29       0.00       1.37      14.64       3.94      18.57        4.36   399.24   0.730
  2                         12.16       0.00       0.00       3.02       2.89       1.65       4.55        1.82   245.52   0.374
  
  
  ****************************
  Subcatchment Washoff Summary
  ****************************
  
  ------------------------------------------------------------------------------------------
                                 COD            SS            TN            TP         NH4-N
  Subcatchment                    kg            kg            kg            kg            kg
  ------------------------------------------------------------------------------------------
  sub0                         2.176         4.147         0.037         0.003         0.018
  sub1                         9.268        18.138         0.173         0.012         0.083
  sub2                         5.563        10.570         0.119         0.008         0.054
  sub3                        13.747        25.918         0.288         0.019         0.132
  sub4                        21.530        42.606         0.429         0.026         0.205
  sub5                        21.300        41.103         0.378         0.029         0.183
  sub7                         4.748         9.424         0.090         0.006         0.043
  sub8                         7.142        14.500         0.143         0.008         0.069
  sub9                         6.100        12.212         0.118         0.007         0.057
  sub10                       17.532        34.266         0.321         0.023         0.155
  sub11                       17.086        33.770         0.320         0.022         0.154
  sub12                       14.392        27.890         0.260         0.019         0.125
  sub14                       13.021        25.823         0.247         0.016         0.119
  sub15                       16.182        30.744         0.313         0.023         0.146
  sub16                       10.318        19.555         0.197         0.015         0.092
  sub17                        9.471        17.789         0.175         0.014         0.082
  sub22                       48.821        90.813         0.932         0.070         0.434
  sub23                       29.138        56.181         0.627         0.041         0.287
  sub60                      203.703       376.194         4.083         0.248         1.956
  sub61                      251.300       461.579         4.699         0.320         2.261
  sub62                      262.762       491.326         5.157         0.324         2.474
  sub63                      185.047       334.594         3.739         0.261         1.731
  sub64                      253.867       452.095         4.687         0.339         2.235
  sub65                      260.106       465.192         4.834         0.344         2.309
  sub66                      146.558       263.078         3.037         0.197         1.417
  sub67                      388.205       718.566         6.963         0.510         3.363
  sub68                      276.714       513.393         5.318         0.356         2.539
  sub69                      247.676       464.012         4.658         0.325         2.225
  sub70                      413.256       778.342         8.287         0.572         3.877
  sub71                      173.740       327.842         3.597         0.206         1.720
  sub72                      136.329       239.316         2.558         0.174         1.230
  1                          280.724       531.718         5.751         0.398         2.660
  2                           35.485        61.812         1.030         0.062         0.437
  ------------------------------------------------------------------------------------------
  System                    3783.006      6994.507        73.566         4.996        34.873
  
  
  ******************
  Node Depth Summary
  ******************
  
  ---------------------------------------------------------------------------------
                                 Average  Maximum  Maximum  Time of Max    Reported
                                   Depth    Depth      HGL   Occurrence   Max Depth
  Node                 Type       Meters   Meters   Meters  days hr:min      Meters
  ---------------------------------------------------------------------------------
  WS02001211           JUNCTION     0.77     0.83     5.67     0  03:09        0.83
  WS02001212           JUNCTION     0.48     0.55     5.62     0  03:08        0.55
  WS02001213           JUNCTION     0.72     0.82     5.59     0  03:08        0.82
  WS02003069           JUNCTION     0.53     0.68     5.26     0  03:07        0.68
  WS02003072           JUNCTION     0.59     0.73     5.10     0  03:07        0.73
  WS02003073           JUNCTION     0.36     0.46     4.52     0  03:08        0.45
  WS02003060           JUNCTION     0.47     0.60     5.53     0  03:06        0.60
  WS02003066           JUNCTION     0.26     0.36     5.92     0  03:05        0.36
  WS02003059           JUNCTION     0.77     0.88     5.57     0  03:07        0.88
  WS02003067           JUNCTION     0.63     0.79     6.11     0  03:05        0.79
  WS02004401           JUNCTION     0.76     1.14     7.14     0  03:03        1.13
  WS02004402           JUNCTION     0.78     1.14     7.10     0  03:02        1.13
  WS02004403           JUNCTION     0.80     1.12     7.05     0  03:03        1.12
  WS02004404           JUNCTION     0.87     1.18     7.03     0  03:02        1.17
  WS02004406           JUNCTION     0.87     1.12     6.95     0  03:03        1.11
  WS02004409           JUNCTION     0.57     0.87     6.64     0  03:04        0.87
  WS02004410           JUNCTION     0.59     0.87     6.59     0  03:04        0.87
  WS02004411           JUNCTION     0.60     0.86     6.54     0  03:04        0.86
  WS02004412           JUNCTION     0.61     0.84     6.48     0  03:05        0.84
  WS02004413           JUNCTION     0.77     0.98     6.45     0  03:05        0.98
  WS02004405           JUNCTION     0.87     1.15     7.00     0  03:03        1.15
  WS02006109           JUNCTION     0.85     1.31     7.93     0  03:02        1.30
  WS02006110           JUNCTION     0.82     1.15     7.73     0  03:02        1.14
  WS02006111           JUNCTION     0.25     0.66     7.36     0  03:03        0.66
  WS02006112           JUNCTION     0.94     1.42     7.30     0  03:03        1.41
  WS02006113           JUNCTION     0.39     0.65     7.54     0  03:03        0.65
  WS02006115           JUNCTION     0.65     1.09     7.23     0  03:03        1.09
  WS02006116           JUNCTION     0.73     1.15     7.19     0  03:03        1.14
  WS02006230           JUNCTION     0.88     1.52     8.26     0  03:02        1.51
  WS02006231           JUNCTION     0.62     1.22     8.34     0  03:02        1.21
  WS02006232           JUNCTION     0.77     1.37     8.40     0  03:02        1.35
  WS02006234           JUNCTION     0.72     1.32     8.48     0  03:02        1.31
  WS02006235           JUNCTION     0.76     1.37     8.54     0  03:02        1.36
  WS02006238           JUNCTION     0.79     1.39     8.54     0  03:02        1.38
  WS02006240           JUNCTION     0.70     1.28     8.57     0  03:02        1.28
  WS02006242           JUNCTION     0.76     1.33     8.60     0  03:01        1.33
  WS02006243           JUNCTION     0.65     1.21     8.63     0  03:01        1.20
  WS02006245           JUNCTION     0.62     1.17     8.66     0  03:01        1.16
  WS02006247           JUNCTION     0.64     1.17     8.67     0  03:00        1.17
  WS02006248           JUNCTION     0.58     1.09     8.68     0  02:59        1.09
  WS02006249           JUNCTION     0.60     1.09     8.69     0  02:59        1.09
  WS02006239           JUNCTION     0.75     1.35     8.56     0  03:02        1.34
  WS02006251           JUNCTION     0.58     1.55     9.22     0  03:18        1.18
  WS02006252           JUNCTION     0.37     1.08     9.32     0  03:18        0.71
  WS02006253           JUNCTION     0.61     1.52     9.16     0  03:18        1.22
  WS02006256           JUNCTION     1.76     2.35     9.28     0  00:00        2.35
  WS02004138           JUNCTION     0.19     0.20     7.45     0  00:00        0.19
  WS02004139           JUNCTION     0.71     0.77     5.68     0  03:09        0.77
  WS02004407           JUNCTION     0.25     0.37     6.68     0  03:03        0.37
  WS02006228           JUNCTION     0.87     1.44     8.09     0  03:02        1.43
  WS02006229           JUNCTION     0.86     1.49     8.18     0  03:02        1.48
  WS02006280           JUNCTION     0.07     0.20     8.47     0  03:02        0.20
  WS02006284           JUNCTION     0.37     0.56     8.96     0  03:02        0.56
  WS02006287           JUNCTION     0.10     0.30     9.25     0  03:01        0.30
  WSF200               JUNCTION     0.25     0.40     5.64     0  03:05        0.40
  HS02004901           JUNCTION     0.13     0.29    10.12     0  03:01        0.29
  HS02004881           JUNCTION     0.01     0.04     9.07     0  03:01        0.04
  HS02004876           JUNCTION     0.04     0.12     9.15     0  03:01        0.12
  HS02004870           JUNCTION     0.02     0.07     9.35     0  03:01        0.07
  HS02004862           JUNCTION     0.02     0.08     9.46     0  03:01        0.08
  HS02004856           JUNCTION     0.08     0.13     9.55     0  03:01        0.13
  HS02004852           JUNCTION     0.01     0.05     9.56     0  03:01        0.05
  HS02004848           JUNCTION     0.01     0.05     9.65     0  03:01        0.05
  HS02004842           JUNCTION     0.33     0.38     9.65     0  03:01        0.38
  HS02004837           JUNCTION     0.03     0.07     9.65     0  03:01        0.07
  HS02004830           JUNCTION     0.04     0.08     9.55     0  03:01        0.08
  HS02004824           JUNCTION     0.02     0.06     9.47     0  03:01        0.06
  HS02004817           JUNCTION     0.44     0.61     9.45     0  03:01        0.61
  HS02004807           JUNCTION     0.13     0.28     9.45     0  03:01        0.28
  HS02004802           JUNCTION     0.16     0.31     9.44     0  03:01        0.31
  HS02004799           JUNCTION     0.12     0.35     9.56     0  03:01        0.35
  HS02004792           JUNCTION     0.03     0.15     9.67     0  03:01        0.15
  HS02004788           JUNCTION     0.03     0.11    10.01     0  03:01        0.11
  HS02004785           JUNCTION     0.05     0.18    10.09     0  03:01        0.18
  HS02004777           JUNCTION     0.15     0.31    10.11     0  03:01        0.31
  HS02004770           JUNCTION     0.12     0.29    10.12     0  03:01        0.29
  HS02004480           JUNCTION     0.08     0.28     9.52     0  03:01        0.28
  HS02004479           JUNCTION     0.12     0.32     9.52     0  03:01        0.32
  HS02004478           JUNCTION     0.06     0.20     9.42     0  03:01        0.20
  YS02001745           JUNCTION     0.73     0.92     8.44     0  03:01        0.92
  YS02001748           JUNCTION     1.13     1.59     8.67     0  02:27        1.35
  YS02001751           JUNCTION     1.32     1.71     8.59     0  02:27        1.55
  YS02001754           JUNCTION     1.57     1.84     8.45     0  02:27        1.82
  YS02001762           JUNCTION     1.77     2.05     8.45     0  04:52        2.02
  YS02001765           JUNCTION     1.72     2.00     8.45     0  04:52        1.96
  YS02001767           JUNCTION     1.69     1.95     8.44     0  04:52        1.93
  YS02001770           JUNCTION     1.68     1.93     8.42     0  02:59        1.91
  YS02001774           JUNCTION     1.75     1.98     8.40     0  04:52        1.97
  YS02001779           JUNCTION     1.49     1.68     8.37     0  02:27        1.68
  YS02001882           JUNCTION     0.52     1.62     8.34     0  03:00        1.61
  YS02001884           JUNCTION     0.62     1.72     8.34     0  03:00        1.71
  YS02001759           JUNCTION     1.80     2.08     8.44     0  02:50        2.06
  YS02001887           JUNCTION     0.69     1.80     8.34     0  03:01        1.79
  YS02001890           JUNCTION     0.72     1.81     8.32     0  02:55        1.81
  YS02001898           JUNCTION     0.49     1.56     8.29     0  02:57        1.55
  YS02001901           JUNCTION     0.61     1.68     8.28     0  03:00        1.67
  YS02001904           JUNCTION     0.59     1.64     8.27     0  02:58        1.63
  YS02001907           JUNCTION     0.92     1.96     8.25     0  02:44        1.96
  YS02001910           JUNCTION     0.71     1.78     8.29     0  02:46        1.76
  YS02001915           JUNCTION     0.51     1.58     8.30     0  02:46        1.57
  YS02001918           JUNCTION     0.26     1.26     8.33     0  02:45        1.23
  YS02001619           JUNCTION     1.28     1.61     8.54     0  02:27        1.50
  YS02001629           JUNCTION     1.63     1.85     8.40     0  02:27        1.84
  YS02001641           JUNCTION     1.73     1.96     8.40     0  05:59        1.93
  YS02001644           JUNCTION     1.74     1.92     8.35     0  02:35        1.92
  YS02001652           JUNCTION     1.58     2.08     8.68     0  02:52        1.89
  YS02001655           JUNCTION     1.34     2.07     8.92     0  02:52        1.68
  YS02001920           JUNCTION     0.37     1.34     8.35     0  02:45        1.30
  YS02001923           JUNCTION     0.21     1.10     8.36     0  02:45        1.06
  YS02001926           JUNCTION     0.27     0.92     8.36     0  02:45        0.91
  YS02001929           JUNCTION     0.15     0.68     8.38     0  02:46        0.66
  YS02001658           JUNCTION     1.07     2.04     9.18     0  02:52        1.45
  YS02001661           JUNCTION     0.84     1.93     9.33     0  02:52        1.39
  YS02001664           JUNCTION     0.37     0.57     8.50     0  02:45        0.56
  YS02001622           JUNCTION     1.30     1.62     8.52     0  02:27        1.51
  YS02001633           JUNCTION     1.72     1.98     8.43     0  05:59        1.94
  YS02001649           JUNCTION     1.78     2.05     8.44     0  02:37        2.05
  YS02001757           JUNCTION     1.90     2.18     8.44     0  02:59        2.17
  YS02001895           JUNCTION     0.49     1.56     8.31     0  02:59        1.56
  YS02001625           JUNCTION     1.59     1.78     8.38     0  02:27        1.78
  YS02163301           JUNCTION     1.66     1.91     8.42     0  05:59        1.87
  YS02163601           JUNCTION     1.78     2.03     8.43     0  05:59        1.98
  YS02164001           JUNCTION     1.71     1.97     8.42     0  05:59        1.91
  YS02001647           JUNCTION     1.57     1.80     8.41     0  03:39        1.79
  YSB1154              JUNCTION     0.26     0.47     9.52     0  03:01        0.47
  YSB6556              JUNCTION     0.15     0.35     9.52     0  03:01        0.35
  YSB1174              JUNCTION     0.21     0.41     9.52     0  03:01        0.41
  YSB1171              JUNCTION     0.41     0.62     9.52     0  03:01        0.62
  YS02006553           JUNCTION     0.92     1.97     8.25     0  03:00        1.96
  YS02006561           JUNCTION     0.29     1.08     7.74     0  02:49        1.07
  YS02006556           JUNCTION     0.89     1.92     8.23     0  02:58        1.92
  YS02006558           JUNCTION     0.93     1.96     8.23     0  02:58        1.96
  YS02001783           JUNCTION     0.50     1.47     7.61     0  02:44        1.47
  YS02001784           JUNCTION     0.52     1.48     7.55     0  02:34        1.40
  YS02001786           JUNCTION     0.47     1.57     7.60     0  02:34        1.25
  YS02001788           JUNCTION     0.40     1.59     7.57     0  02:34        1.12
  YS02001790           JUNCTION     0.52     1.96     7.60     0  04:43        1.29
  YS02001791           JUNCTION     0.49     2.55     8.02     0  04:42        1.27
  YS02001793           JUNCTION     0.69     2.14     6.97     0  04:42        1.82
  WSC                  OUTFALL      0.36     0.45     1.12     0  03:08        0.45
  JK-storage           STORAGE      2.86     5.80     6.60     0  02:34        5.80
  CC-storage           STORAGE      1.16     1.42     8.42     0  03:11        1.42
  XR-storage           STORAGE      6.65     7.72     5.72     0  02:50        7.72
  
  
  *******************
  Node Inflow Summary
  *******************
  
  -------------------------------------------------------------------------------------------------
                                  Maximum  Maximum                  Lateral       Total        Flow
                                  Lateral    Total  Time of Max      Inflow      Inflow     Balance
                                   Inflow   Inflow   Occurrence      Volume      Volume       Error
  Node                 Type           LPS      LPS  days hr:min    10^6 ltr    10^6 ltr     Percent
  -------------------------------------------------------------------------------------------------
  WS02001211           JUNCTION      7.35   391.08     0  03:14       0.207        9.97       0.419
  WS02001212           JUNCTION      0.00   394.48     0  03:14           0        9.93       0.249
  WS02001213           JUNCTION      0.00   397.55     0  03:14           0         9.9       0.318
  WS02003069           JUNCTION      0.32  1216.39     0  03:07     0.00902        20.6       0.206
  WS02003072           JUNCTION      0.00  1216.31     0  03:07           0        20.5       0.238
  WS02003073           JUNCTION      1.82  1218.32     0  03:08      0.0514        20.5       0.280
  WS02003060           JUNCTION     16.53  1215.90     0  03:06       0.466        20.6       0.194
  WS02003066           JUNCTION      0.00   828.20     0  03:05           0        10.3       0.059
  WS02003059           JUNCTION      0.00   401.60     0  03:14           0        9.87       0.436
  WS02003067           JUNCTION      0.00   827.88     0  03:05           0        10.3       0.113
  WS02004401           JUNCTION      0.00   831.76     0  03:03           0        10.6       0.260
  WS02004402           JUNCTION      0.00   832.31     0  03:03           0        10.6       0.238
  WS02004403           JUNCTION      0.00   831.90     0  03:03           0        10.6       0.211
  WS02004404           JUNCTION      0.16   832.29     0  03:03     0.00457        10.5       0.151
  WS02004406           JUNCTION      0.00   831.96     0  03:03           0        10.5       0.370
  WS02004409           JUNCTION      0.00   831.36     0  03:03           0        10.5       0.231
  WS02004410           JUNCTION      0.00   829.24     0  03:04           0        10.4       0.251
  WS02004411           JUNCTION      0.00   828.22     0  03:04           0        10.4       0.250
  WS02004412           JUNCTION      0.00   827.80     0  03:05           0        10.4       0.259
  WS02004413           JUNCTION      0.00   827.81     0  03:05           0        10.4       0.365
  WS02004405           JUNCTION      0.04   832.40     0  03:03     0.00107        10.5       0.225
  WS02006109           JUNCTION      1.23   819.17     0  03:02      0.0347        10.7       0.202
  WS02006110           JUNCTION      0.00   819.21     0  03:02           0        10.7       0.217
  WS02006111           JUNCTION      0.00   817.88     0  03:03           0        10.6       0.063
  WS02006112           JUNCTION     16.72   831.25     0  03:03      0.0747        10.7       0.333
  WS02006113           JUNCTION      0.00   818.94     0  03:02           0        10.6       0.133
  WS02006115           JUNCTION      0.00   831.23     0  03:03           0        10.7       0.272
  WS02006116           JUNCTION      0.00   831.65     0  03:03           0        10.6       0.232
  WS02006230           JUNCTION     10.28   532.69     0  07:43        0.29        8.54       0.245
  WS02006231           JUNCTION      0.00   522.35     0  07:46           0        8.27       0.170
  WS02006232           JUNCTION      0.00   522.39     0  07:45           0        8.29       0.222
  WS02006234           JUNCTION      0.00   522.75     0  07:40           0         8.3       0.136
  WS02006235           JUNCTION      0.00   523.51     0  07:43           0        8.37       0.141
  WS02006238           JUNCTION      0.00   418.17     0  04:30           0        4.92       0.191
  WS02006240           JUNCTION      0.00   416.46     0  04:30           0        4.89       0.344
  WS02006242           JUNCTION      0.00   416.29     0  04:30           0        4.88       0.376
  WS02006243           JUNCTION      0.00   415.82     0  04:30           0        4.89       0.370
  WS02006245           JUNCTION      0.00   415.90     0  05:50           0        4.89       0.285
  WS02006247           JUNCTION      0.00   416.50     0  05:50           0         4.9       0.232
  WS02006248           JUNCTION      0.00   416.84     0  05:50           0        4.91       0.191
  WS02006249           JUNCTION      0.00   429.94     0  03:20           0        5.43       0.291
  WS02006239           JUNCTION      0.00   417.34     0  04:30           0         4.9       0.292
  WS02006251           JUNCTION      0.08   428.28     0  03:20     0.00217        5.49       0.341
  WS02006252           JUNCTION      0.00   400.00     0  03:20           0        5.04       0.012
  WS02006253           JUNCTION      1.99   122.28     0  07:11     0.00928       0.465       3.191
  WS02006256           JUNCTION      0.00   983.00     0  02:10           0        10.1      -0.007
  WS02004138           JUNCTION      0.00   380.00     0  00:00           0         9.8       0.061
  WS02004139           JUNCTION      0.32   395.85     0  00:00     0.00905        9.81       0.478
  WS02004407           JUNCTION      0.00   831.53     0  03:03           0        10.5       0.102
  WS02006228           JUNCTION      0.00   817.88     0  03:02           0        10.7       0.161
  WS02006229           JUNCTION      0.00   818.63     0  03:02           0        10.7       0.156
  WS02006280           JUNCTION      0.00   413.66     0  03:02           0        2.17       0.005
  WS02006284           JUNCTION      0.10   413.61     0  03:02      0.0027        2.17       0.042
  WS02006287           JUNCTION      0.00   413.26     0  03:01           0        2.17       0.033
  WSF200               JUNCTION      0.00   828.31     0  03:05           0        10.3       0.065
  HS02004901           JUNCTION     20.36    20.36     0  03:01      0.0901      0.0904       1.990
  HS02004881           JUNCTION      7.95    84.19     0  03:01      0.0378        0.41       0.114
  HS02004876           JUNCTION     14.96    76.75     0  03:01      0.0728       0.373       0.148
  HS02004870           JUNCTION     14.89    62.15     0  03:01      0.0716         0.3       0.037
  HS02004862           JUNCTION     15.28    47.68     0  03:01      0.0788       0.229       0.076
  HS02004856           JUNCTION     11.18    32.72     0  03:01      0.0539       0.152       0.960
  HS02004852           JUNCTION      0.00    21.94     0  03:01           0      0.0979       0.059
  HS02004848           JUNCTION     34.61    34.61     0  03:01       0.174       0.174       0.028
  HS02004842           JUNCTION      0.00    12.41     0  03:01           0      0.0895      16.997
  HS02004837           JUNCTION     31.84    43.95     0  03:01       0.303        0.38       0.214
  HS02004830           JUNCTION      0.15    43.86     0  03:01     0.00423        0.37       0.335
  HS02004824           JUNCTION     42.39    85.90     0  03:01       0.225       0.594       0.091
  HS02004817           JUNCTION      0.60    86.29     0  03:01      0.0169        0.61       2.809
  HS02004807           JUNCTION     27.35   112.31     0  03:01       0.131       0.726       0.605
  HS02004802           JUNCTION      0.00   111.38     0  03:01           0       0.723       0.548
  HS02004799           JUNCTION     22.08   258.95     0  03:01       0.107        1.24       0.223
  HS02004792           JUNCTION    102.90   238.01     0  03:01        0.47        1.14       0.036
  HS02004788           JUNCTION     34.16   135.94     0  03:01       0.199       0.669       0.059
  HS02004785           JUNCTION      0.15   103.53     0  03:01     0.00423       0.471       0.106
  HS02004777           JUNCTION      0.03   104.16     0  03:01    0.000846       0.472       1.115
  HS02004770           JUNCTION     85.35   105.11     0  03:01       0.385       0.473       0.659
  HS02004480           JUNCTION      0.00   302.47     0  03:01           0        1.46       0.076
  HS02004479           JUNCTION      0.00    44.91     0  03:02           0       0.232       0.317
  HS02004478           JUNCTION      0.00   413.12     0  03:01           0        2.17       0.014
  YS02001745           JUNCTION    336.84   417.78     0  02:26        2.69         2.7       0.379
  YS02001748           JUNCTION      0.04   583.60     0  02:26     0.00127        2.69       0.805
  YS02001751           JUNCTION      0.01   342.35     0  03:01     0.00031        2.66       0.898
  YS02001754           JUNCTION      0.26   342.56     0  03:01     0.00733        2.64       0.951
  YS02001762           JUNCTION      0.00   291.17     0  02:38           0        2.09       1.028
  YS02001765           JUNCTION      0.00   292.45     0  02:38           0         2.1       1.181
  YS02001767           JUNCTION      0.54   292.73     0  02:38      0.0151        2.12       1.711
  YS02001770           JUNCTION    415.94   566.02     0  03:01        3.01        3.32       0.950
  YS02001774           JUNCTION      0.00   567.49     0  03:01           0         1.5       1.704
  YS02001779           JUNCTION      0.01   567.04     0  03:02    0.000141        1.46       1.055
  YS02001882           JUNCTION      0.00    43.16     0  02:36           0      0.0214      11.553
  YS02001884           JUNCTION      0.00    74.88     0  02:36           0      0.0583      11.959
  YS02001759           JUNCTION    399.49   572.87     0  02:38        2.78        4.53       0.506
  YS02001887           JUNCTION    494.68   495.39     0  03:01        3.19        3.22       0.267
  YS02001890           JUNCTION      0.00   495.44     0  03:01           0        3.18       0.291
  YS02001898           JUNCTION      0.00   495.09     0  03:01           0        3.16       0.101
  YS02001901           JUNCTION      0.00   495.02     0  03:00           0        3.16       0.216
  YS02001904           JUNCTION      0.00   495.12     0  03:01           0        3.16       0.198
  YS02001907           JUNCTION      0.00   942.46     0  03:01           0        7.02       0.355
  YS02001910           JUNCTION      0.00   451.21     0  03:00           0        3.87       0.312
  YS02001915           JUNCTION    296.36   451.13     0  03:00        2.25         3.9       0.153
  YS02001918           JUNCTION      0.00   213.05     0  03:30           0        1.66       0.118
  YS02001619           JUNCTION    290.53   290.53     0  03:01        2.24        2.24       0.556
  YS02001629           JUNCTION      0.00   198.97     0  02:17           0        1.69       1.751
  YS02001641           JUNCTION      0.00   398.98     0  02:34           0        4.25       0.502
  YS02001644           JUNCTION    321.01  1355.04     0  03:00        2.59        9.08       0.286
  YS02001652           JUNCTION      0.00   380.12     0  03:01           0        2.36       1.010
  YS02001655           JUNCTION      0.15   379.17     0  03:01     0.00434        2.38       1.057
  YS02001920           JUNCTION      2.87   210.87     0  02:46      0.0809        1.64       0.180
  YS02001923           JUNCTION      0.04   230.42     0  02:47     0.00106        1.56       0.049
  YS02001926           JUNCTION      0.05   184.57     0  02:46     0.00147        1.56       0.210
  YS02001929           JUNCTION    151.13   151.13     0  03:01        1.56        1.56       0.036
  YS02001658           JUNCTION      0.00   605.06     0  02:23           0        2.42       0.929
  YS02001661           JUNCTION      0.00   625.63     0  02:42           0        2.88      -0.687
  YS02001664           JUNCTION    361.21   361.21     0  03:01        2.38        2.87       0.223
  YS02001622           JUNCTION      0.00   291.50     0  03:01           0        2.22       1.448
  YS02001633           JUNCTION    326.74   396.80     0  02:35        2.66        4.31       0.754
  YS02001649           JUNCTION      0.00   826.64     0  02:35           0        5.12       0.730
  YS02001757           JUNCTION      0.00  1578.64     0  02:35           0         9.6       0.963
  YS02001895           JUNCTION      0.00   495.36     0  03:01           0        3.17       0.164
  YS02001625           JUNCTION      0.00   290.68     0  03:01           0        2.19       1.806
  YS02163301           JUNCTION      0.00   205.45     0  02:27           0        1.67       1.466
  YS02163601           JUNCTION      0.11   397.33     0  02:34      0.0031        4.27       0.711
  YS02164001           JUNCTION      0.00   397.69     0  02:35           0        4.25       0.479
  YS02001647           JUNCTION      0.00   668.75     0  03:12           0        4.17       0.679
  YSB1154              JUNCTION     26.18    26.18     0  03:01       0.129        0.13       1.130
  YSB6556              JUNCTION      0.00    25.83     0  03:01           0        0.13       0.969
  YSB1174              JUNCTION     20.52    20.52     0  03:01      0.0948      0.0952       1.368
  YSB1171              JUNCTION      0.00    45.31     0  03:01           0       0.231       2.821
  YS02006553           JUNCTION      0.00   703.26     0  03:31           0        6.56       0.238
  YS02006561           JUNCTION      0.00   982.29     0  02:59           0        9.44       0.008
  YS02006556           JUNCTION      0.00   703.66     0  03:31           0        6.57       0.173
  YS02006558           JUNCTION    433.40   983.43     0  02:59        2.93        9.47       0.053
  YS02001783           JUNCTION      0.00   982.79     0  03:00           0        9.44       0.026
  YS02001784           JUNCTION      1.06   983.57     0  02:59      0.0299        9.47       0.039
  YS02001786           JUNCTION      0.06   983.51     0  03:00     0.00159        9.47       0.037
  YS02001788           JUNCTION      0.07   983.50     0  03:00       0.002        9.47       0.024
  YS02001790           JUNCTION      0.15   983.80     0  03:00     0.00437        9.47       0.020
  YS02001791           JUNCTION      0.00   983.56     0  03:00           0        9.47       0.014
  YS02001793           JUNCTION      0.00   984.12     0  03:00           0        9.49      -0.003
  WSC                  OUTFALL       0.00  1218.64     0  03:08           0        20.5       0.000
  JK-storage           STORAGE       0.00  1135.08     0  02:04           0        9.64     -12.495
  CC-storage           STORAGE       0.00  1579.37     0  02:35           0        8.59       0.728
  XR-storage           STORAGE     844.76   844.76     0  03:01        11.8        12.4      -0.002
  
  
  **********************
  Node Surcharge Summary
  **********************
  
  Surcharging occurs when water rises above the top of the highest conduit.
  ---------------------------------------------------------------------
                                               Max. Height   Min. Depth
                                   Hours       Above Crown    Below Rim
  Node                 Type      Surcharged         Meters       Meters
  ---------------------------------------------------------------------
  WS02004401           JUNCTION        0.21          0.138        1.522
  WS02004402           JUNCTION        0.23          0.136        1.604
  WS02004403           JUNCTION        0.23          0.123        1.907
  WS02004404           JUNCTION        0.76          0.178        2.602
  WS02004406           JUNCTION        0.47          0.116        2.334
  WS02004405           JUNCTION        0.59          0.154        2.646
  WS02006109           JUNCTION        4.50          0.491        1.329
  WS02006110           JUNCTION        2.65          0.240        1.610
  WS02006112           JUNCTION        3.09          0.418        1.262
  WS02006115           JUNCTION        0.13          0.080        2.170
  WS02006116           JUNCTION        0.14          0.086        2.204
  WS02006230           JUNCTION        2.17          0.438        1.132
  WS02006231           JUNCTION        2.51          0.508        1.022
  WS02006232           JUNCTION        4.24          0.665        0.815
  WS02006234           JUNCTION        3.50          0.599        0.641
  WS02006235           JUNCTION        3.75          0.661        0.629
  WS02006238           JUNCTION        3.84          0.672        0.758
  WS02006240           JUNCTION        3.53          0.569        0.821
  WS02006242           JUNCTION        3.64          0.603        0.217
  WS02006243           JUNCTION        3.06          0.501        0.269
  WS02006245           JUNCTION        2.85          0.461        0.389
  WS02006247           JUNCTION        2.87          0.459        0.301
  WS02006248           JUNCTION        2.55          0.372        0.008
  WS02006249           JUNCTION        2.62          0.390        0.000
  WS02006239           JUNCTION        3.55          0.608        0.682
  WS02006251           JUNCTION        1.79          0.523        0.657
  WS02006252           JUNCTION        3.04          0.675        0.425
  WS02006253           JUNCTION        1.82          0.476        2.004
  WS02006256           JUNCTION        6.88          2.050        0.000
  WS02006228           JUNCTION        4.48          0.611        1.589
  YS02001748           JUNCTION        5.31          0.509        0.681
  YS02001751           JUNCTION        5.48          0.711        0.489
  YS02001754           JUNCTION        5.70          0.790        0.360
  YS02001762           JUNCTION        5.87          1.046        0.104
  YS02001765           JUNCTION        5.84          1.000        0.100
  YS02001767           JUNCTION        5.81          0.953        0.077
  YS02001770           JUNCTION        5.80          0.897        0.023
  YS02001774           JUNCTION        5.86          0.982        0.068
  YS02001779           JUNCTION        5.68          0.680        0.000
  YS02001882           JUNCTION        0.90          0.621        0.209
  YS02001884           JUNCTION        0.93          0.659        0.211
  YS02001759           JUNCTION        5.89          1.081        0.129
  YS02001887           JUNCTION        0.99          0.748        0.202
  YS02001890           JUNCTION        1.02          0.760        0.000
  YS02001898           JUNCTION        0.86          0.527        0.213
  YS02001901           JUNCTION        0.96          0.675        0.195
  YS02001904           JUNCTION        0.95          0.636        0.214
  YS02001907           JUNCTION        1.76          0.950        0.000
  YS02001910           JUNCTION        1.06          0.779        0.321
  YS02001915           JUNCTION        0.89          0.585        0.415
  YS02001918           JUNCTION        0.71          0.265        0.545
  YS02001619           JUNCTION        5.47          0.610        0.000
  YS02001629           JUNCTION        5.49          0.470        0.000
  YS02001641           JUNCTION        5.85          0.960        0.140
  YS02001644           JUNCTION        5.85          0.920        0.000
  YS02001652           JUNCTION        5.73          1.049        0.081
  YS02001655           JUNCTION        5.50          1.071        0.129
  YS02001920           JUNCTION        0.74          0.338        0.802
  YS02001658           JUNCTION        5.34          1.037        0.263
  YS02001661           JUNCTION        0.17          0.860        0.530
  YS02001622           JUNCTION        5.51          0.620        0.000
  YS02001633           JUNCTION        5.83          0.956        0.104
  YS02001649           JUNCTION        5.87          1.050        0.000
  YS02001757           JUNCTION        5.98          1.181        0.029
  YS02001895           JUNCTION        0.88          0.564        0.186
  YS02001625           JUNCTION        5.76          0.780        0.000
  YS02163301           JUNCTION        5.81          0.907        0.123
  YS02163601           JUNCTION        5.87          1.033        0.047
  YS02164001           JUNCTION        5.84          0.965        0.135
  YS02001647           JUNCTION        5.75          0.800        0.100
  YS02006553           JUNCTION        1.87          0.966        0.224
  YS02006561           JUNCTION        0.77          0.281        0.869
  YS02006556           JUNCTION        1.31          0.881        0.469
  YS02006558           JUNCTION        1.26          0.860        0.540
  YS02001783           JUNCTION        1.04          0.670        0.930
  YS02001784           JUNCTION        1.02          0.682        0.808
  YS02001786           JUNCTION        0.97          0.773        0.657
  YS02001788           JUNCTION        0.91          0.789        0.691
  YS02001790           JUNCTION        1.78          1.157        0.000
  YS02001791           JUNCTION        1.89          1.748        0.172
  YS02001793           JUNCTION        2.16          1.136        1.464
  
  
  *********************
  Node Flooding Summary
  *********************
  
  Flooding refers to all water that overflows a node, whether it ponds or not.
  --------------------------------------------------------------------------
                                                             Total   Maximum
                                 Maximum   Time of Max       Flood    Ponded
                        Hours       Rate    Occurrence      Volume     Depth
  Node                 Flooded       LPS   days hr:min    10^6 ltr    Meters
  --------------------------------------------------------------------------
  WS02006249              1.74    133.95      0  03:20       0.507     0.000
  WS02006256              4.16    810.50      0  03:02       6.608     0.000
  YS02001779              2.49    566.85      0  03:02       1.443     0.000
  YS02001890              0.01      0.98      0  03:00       0.000     0.000
  YS02001907              0.58    394.42      0  03:01       0.442     0.000
  YS02001619              0.01     18.54      0  02:27       0.000     0.000
  YS02001629              0.01     29.97      0  02:27       0.000     0.000
  YS02001644              4.34   1354.80      0  03:00       7.146     0.000
  YS02001622              0.01     17.41      0  02:27       0.000     0.000
  YS02001649              0.02     29.68      0  02:52       0.001     0.000
  YS02001625              1.21    236.00      0  03:01       0.466     0.000
  YS02001790              0.01    233.60      0  04:43       0.000     0.000
  JK-storage              0.83    815.44      0  02:40       0.869     0.000
  XR-storage              3.14    464.69      0  03:01       1.990     0.000
  
  
  **********************
  Storage Volume Summary
  **********************
  
  --------------------------------------------------------------------------------------------------
                         Average     Avg  Evap Exfil       Maximum     Max    Time of Max    Maximum
                          Volume    Pcnt  Pcnt  Pcnt        Volume    Pcnt     Occurrence    Outflow
  Storage Unit           1000 m3    Full  Loss  Loss       1000 m3    Full    days hr:min        LPS
  --------------------------------------------------------------------------------------------------
  JK-storage               0.144      49     0     0         0.291     100       0  02:34     983.00
  CC-storage               3.228      21     0     0         3.958      25       0  03:11     400.00
  XR-storage               0.798      86     0     0         0.926     100       0  02:50     380.00
  
  
  ***********************
  Outfall Loading Summary
  ***********************
  
  ---------------------------------------------------------------------------------------------------------------------------------
                         Flow       Avg       Max       Total         Total         Total         Total         Total         Total
                         Freq      Flow      Flow      Volume           COD            SS            TN            TP         NH4-N
  Outfall Node           Pcnt       LPS       LPS    10^6 ltr            kg            kg            kg            kg            kg
  ---------------------------------------------------------------------------------------------------------------------------------
  WSC                   99.98    809.75   1218.64      20.457      2376.490      4066.193       151.770        17.837        91.819
  ---------------------------------------------------------------------------------------------------------------------------------
  System                99.98    809.75   1218.64      20.457      2376.490      4066.193       151.770        17.837        91.819
  
  
  ********************
  Link Flow Summary
  ********************
  
  -----------------------------------------------------------------------------
                                 Maximum  Time of Max   Maximum    Max/    Max/
                                  |Flow|   Occurrence   |Veloc|    Full    Full
  Link                 Type          LPS  days hr:min     m/sec    Flow   Depth
  -----------------------------------------------------------------------------
  WS02003066WSF200     CONDUIT    828.31     0  03:05      2.94    0.14    0.30
  WS02006287WS02006284 CONDUIT    413.51     0  03:02      2.04    0.19    0.30
  WS02006284WS02006280 CONDUIT    413.66     0  03:02      2.28    0.17    0.28
  WS02006280WS02006229 CONDUIT    413.66     0  03:02      3.63    0.09    0.25
  WS02006229WS02006228 CONDUIT    817.88     0  03:02      1.63    2.71    1.00
  WS02006256WS02006235 CONDUIT    288.92     0  00:00      4.23    3.06    1.00
  WS02006253WS02006251 CONDUIT    121.77     0  07:11      0.60    0.37    1.00
  WS02006252WS02006251 CONDUIT    401.17     0  05:59      3.19    1.47    1.00
  WS02006251WS02006249 CONDUIT    429.94     0  03:20      1.12    1.24    1.00
  WS02006249WS02006248 CONDUIT    416.84     0  05:50      1.13    2.28    1.00
  WS02006248WS02006247 CONDUIT    416.50     0  05:50      1.09    0.91    1.00
  WS02006247WS02006245 CONDUIT    415.90     0  05:50      1.08    3.30    1.00
  WS02006245WS02006243 CONDUIT    415.82     0  04:30      1.08    1.23    1.00
  WS02006243WS02006242 CONDUIT    416.29     0  04:30      1.08    0.89    1.00
  WS02006242WS02006240 CONDUIT    416.46     0  04:30      1.08    1.65    1.00
  WS02006240WS02006239 CONDUIT    417.34     0  04:30      1.08    1.31    1.00
  WS02006239WS02006238 CONDUIT    418.17     0  04:30      1.09    1.34    1.00
  WS02006238WS02006235 CONDUIT    420.02     0  04:30      1.45    0.94    1.00
  WS02006235WS02006234 CONDUIT    522.75     0  07:40      1.36    5.52    1.00
  WS02006234WS02006232 CONDUIT    522.39     0  07:45      1.39    1.06    1.00
  WS02006232WS02006231 CONDUIT    522.35     0  07:46      1.36    1.09    1.00
  WS02006231WS02006230 CONDUIT    522.41     0  07:43      1.36    7.92    1.00
  WS02006230WS02006229 CONDUIT    532.49     0  07:43      1.38   11.85    1.00
  WS02006228WS02006109 CONDUIT    817.94     0  03:02      1.63    3.57    1.00
  WS02006116WS02004401 CONDUIT    831.76     0  03:03      1.06    1.15    1.00
  WS02006115WS02006116 CONDUIT    831.65     0  03:03      1.06    1.07    1.00
  WS02006113WS02006111 CONDUIT    817.88     0  03:03      2.60    0.98    0.81
  WS02006112WS02006115 CONDUIT    831.23     0  03:03      1.06    0.49    1.00
  WS02006111WS02006112 CONDUIT    819.01     0  03:03      1.73    0.39    0.90
  WS02006110WS02006113 CONDUIT    818.94     0  03:02      1.74    0.75    0.91
  WS02006109WS02006110 CONDUIT    819.21     0  03:02      1.63    1.58    1.00
  WS02004411WS02004412 CONDUIT    827.80     0  03:05      1.16    1.18    0.85
  WS02004401WS02004402 CONDUIT    832.31     0  03:03      1.06    1.00    1.00
  WS02004413WS02003067 CONDUIT    827.88     0  03:05      1.42    0.35    0.70
  WS02004412WS02004413 CONDUIT    827.81     0  03:05      1.10    0.55    0.91
  WS02004410WS02004411 CONDUIT    828.22     0  03:04      1.15    1.13    0.86
  WS02004409WS02004410 CONDUIT    829.24     0  03:04      1.15    1.07    0.87
  WS02004407WS02004409 CONDUIT    831.36     0  03:03      1.64    0.29    0.62
  WS02004406WS02004407 CONDUIT    831.53     0  03:03      1.45    0.37    0.69
  WS02004405WS02004406 CONDUIT    831.96     0  03:03      1.10    1.64    1.00
  WS02004404WS02004405 CONDUIT    832.36     0  03:03      1.15    8.15    1.00
  WS02004403WS02004404 CONDUIT    832.13     0  03:03      1.06    0.60    1.00
  WS02004402WS02004403 CONDUIT    831.90     0  03:03      1.06    1.20    1.00
  WS02004139WS02001211 CONDUIT    383.74     0  03:14      0.90    0.49    0.63
  WS02004138WS02004139 CONDUIT    395.52     0  00:00      3.64    0.08    0.46
  WS02003067WS02003066 CONDUIT    828.20     0  03:05      1.54    0.27    0.48
  WS02001213WS02003059 CONDUIT    401.60     0  03:14      0.89    0.66    0.84
  WS02001212WS02001213 CONDUIT    397.55     0  03:14      1.32    0.61    0.53
  WS02001211WS02001212 CONDUIT    394.48     0  03:14      0.78    0.30    0.69
  WS02003072WS02003073 CONDUIT   1216.49     0  03:08      1.90    2.63    0.55
  WS02003069WS02003072 CONDUIT   1216.31     0  03:07      1.76    0.59    0.59
  WS02003060WS02003069 CONDUIT   1216.07     0  03:07      1.98    0.48    0.53
  WS02003059WS02003060 CONDUIT    407.05     0  03:13      0.95    0.27    0.74
  HS02004901HS02004770 CONDUIT     20.52     0  03:01      0.07    0.08    0.42
  HS02004876HS02004881 CONDUIT     76.55     0  03:01      0.95    0.81    0.12
  HS02004870HS02004876 CONDUIT     61.91     0  03:01      0.65    0.04    0.14
  HS02004842HS02004848 CONDUIT     12.41     0  03:01      0.06    0.01    0.31
  HS02004837HS02004842 CONDUIT     12.98     0  03:02      0.42    0.01    0.32
  HS02004830HS02004837 CONDUIT     43.71     0  03:01      0.57    0.04    0.11
  HS02004824HS02004830 CONDUIT     43.67     0  03:01      0.59    0.06    0.11
  HS02004817HS02004824 CONDUIT     85.69     0  03:01      0.26    0.04    0.48
  HS02004770HS02004777 CONDUIT    104.13     0  03:01      0.35    0.19    0.43
  HS02004799HS02004480 CONDUIT    258.32     0  03:01      0.83    0.33    0.44
  HS02004792HS02004799 CONDUIT    237.06     0  03:01      0.95    0.15    0.36
  HS02004788HS02004792 CONDUIT    135.44     0  03:01      1.06    0.09    0.18
  HS02004785HS02004788 CONDUIT    103.22     0  03:02      0.71    0.78    0.21
  HS02004777HS02004785 CONDUIT    103.38     0  03:01      0.42    0.13    0.35
  HS02004480HS02004478 CONDUIT    302.32     0  03:01      1.26    1.27    0.34
  HS02004479HS02004480 CONDUIT     46.30     0  03:02      0.32    0.04    0.43
  HS02004862HS02004870 CONDUIT     47.43     0  03:01      0.66    0.05    0.10
  HS02004848HS02004852 CONDUIT     21.94     0  03:01      0.45    0.02    0.07
  HS02004856HS02004862 CONDUIT     32.48     0  03:01      0.48    0.03    0.10
  HS02004852HS02004856 CONDUIT     21.86     0  03:02      0.25    0.02    0.13
  HS02004802HS02004478 CONDUIT    111.53     0  03:02      0.45    0.10    0.36
  HS02004478WS02006287 CONDUIT    413.26     0  03:01      1.75    0.12    0.26
  HS02004817HS02004807 CONDUIT     86.14     0  03:01      0.19    0.05    0.63
  HS02004807HS02004802 CONDUIT    111.38     0  03:01      0.38    0.21    0.42
  YS02001759YS02001757 CONDUIT    573.79     0  02:38      0.73    0.41    1.00
  YS02001762YS02001759 CONDUIT    292.57     0  02:28      0.37    0.34    1.00
  YS02001765YS02001762 CONDUIT    291.17     0  02:38      0.37    0.27    1.00
  YS02001770YS02001767 CONDUIT    292.19     0  02:38      0.37    1.16    1.00
  YS02001774YS02001770 CONDUIT    567.49     0  03:01      0.72    0.36    1.00
  YS02001779YS02001774 CONDUIT    567.03     0  03:02      0.72    0.29    1.00
  YS02001649YS02001757 CONDUIT    828.25     0  02:35      1.05    0.50    1.00
  YS02001767YS02001765 CONDUIT    292.45     0  02:38      0.37    0.37    1.00
  YS02006561YS02001783 CONDUIT    982.79     0  03:00      2.14    0.51    1.00
  YS02001783YS02001784 CONDUIT    982.51     0  02:59      1.95    1.35    1.00
  YS02001784YS02001785 CONDUIT    983.45     0  03:00      1.96    2.29    1.00
  YS02001788YS02001790 CONDUIT    983.65     0  03:00      2.44    0.72    1.00
  YS02001790YS02001791 CONDUIT    983.56     0  03:00      2.88    1.07    1.00
  YS02001791YS02001793 CONDUIT    984.12     0  03:00      5.76    0.42    1.00
  YS02001910YS02001907 CONDUIT    451.27     0  03:00      0.57    0.25    1.00
  YS02001786YS02001788 CONDUIT    983.43     0  03:00      2.31    1.89    1.00
  YS02001915YS02001910 CONDUIT    451.21     0  03:00      0.59    0.22    1.00
  YS02001918YS02001915 CONDUIT    248.26     0  03:31      0.44    0.14    1.00
  YS02001923YS02001920 CONDUIT    208.00     0  02:46      0.72    0.09    1.00
  YS02001926YS02001923 CONDUIT    230.38     0  02:47      0.83    0.33    0.89
  YS02001929YS02001926 CONDUIT    184.51     0  02:46      0.89    0.09    0.79
  YS02001920YS02001918 CONDUIT    213.05     0  03:30      0.70    0.21    1.00
  YS02001629YS02163301 CONDUIT    205.45     0  02:27      0.26    0.25    1.00
  YS02001619YS02001622 CONDUIT    291.50     0  03:01      0.61    0.43    1.00
  YS02001622YS02001625 CONDUIT    290.68     0  03:01      0.37    0.16    1.00
  YS02001625YS02001629 CONDUIT    198.97     0  02:17      0.26    0.09    1.00
  YS02163301YS02001633 CONDUIT    207.10     0  02:27      0.26    0.19    1.00
  YS02163601YS02164001 CONDUIT    397.69     0  02:35      0.51    0.35    1.00
  YS02164001YS02001641 CONDUIT    398.98     0  02:34      0.51    0.54    1.00
  YS02001641YS02001644 CONDUIT    399.28     0  02:34      0.51    1.29    1.00
  YS02001647YS02001649 CONDUIT    668.75     0  03:12      0.85    0.35    1.00
  YS02006553YS02006556 CONDUIT    703.66     0  03:31      0.90    0.60    1.00
  YS02006556YS02006558 CONDUIT    704.21     0  03:31      0.90    0.56    1.00
  YSB6556YSB1171       CONDUIT     25.76     0  03:03      0.09    0.03    0.70
  YS02001907YS02006553 CONDUIT    703.26     0  03:31      0.78    0.83    1.00
  YS02006558YS02006561 CONDUIT    982.29     0  02:59      3.47    2.17    1.00
  YS02001633YS02163601 CONDUIT    397.22     0  02:34      0.51    0.42    1.00
  YS02001644YS02001647 CONDUIT    668.91     0  03:12      0.85    0.39    1.00
  YS02001745YS02001748 CONDUIT    583.56     0  02:26      1.47    0.22    0.96
  YS02001748YS02001751 CONDUIT    342.33     0  03:01      1.06    0.17    1.00
  YS02001751YS02001754 CONDUIT    342.30     0  03:01      0.92    0.16    1.00
  YS02001754YS02001757 CONDUIT    343.27     0  03:01      0.44    0.14    1.00
  YS02001882YS02001884 CONDUIT     43.16     0  02:36      0.13    0.05    1.00
  YS02001884YS02001887 CONDUIT     74.88     0  02:36      0.10    0.10    1.00
  YS02001890YS02001895 CONDUIT    495.36     0  03:01      0.63    0.23    1.00
  YS02001895YS02001898 CONDUIT    495.09     0  03:01      0.63    0.86    1.00
  YS02001898YS02001901 CONDUIT    495.02     0  03:00      0.63    0.32    1.00
  YS02001901YS02001904 CONDUIT    495.12     0  03:01      0.63    0.77    1.00
  YS02001904YS02001907 CONDUIT    496.02     0  03:01      0.63    0.17    1.00
  YS02001887YS02001890 CONDUIT    495.44     0  03:01      0.63    0.85    1.00
  YS02001652YS02001649 CONDUIT    381.10     0  03:01      0.63    0.19    1.00
  YS02001655YS02001652 CONDUIT    380.12     0  03:01      0.98    0.18    1.00
  YS02001658YS02001655 CONDUIT    379.02     0  03:01      1.22    0.16    1.00
  YS02001661YS02001658 CONDUIT    605.06     0  02:23      1.55    0.24    1.00
  YS02001664YS02001661 CONDUIT    625.63     0  02:42      1.43    0.20    0.76
  YSB1154YSB6556       CONDUIT     25.83     0  03:01      0.17    0.05    0.59
  YSB1174YSB1171       CONDUIT     20.15     0  03:01      0.07    0.03    0.70
  YSB1171HS02004479    CONDUIT     44.91     0  03:02      0.54    0.03    0.55
  HS02004881HS02006253 CONDUIT     84.17     0  03:01      2.15    0.02    0.53
  YS02001793JiankangQianchi CONDUIT   1135.08     0  02:04     17.50    0.09    1.00
  YS02001757CaochengTiaoxuchi CONDUIT   1579.37     0  02:35      2.02    0.69    1.00
  WSF200WS02003060     CONDUIT    828.62     0  03:05      1.85    0.18    0.42
  1                    CONDUIT   1218.64     0  03:08      3.51    0.42    0.45
  CC-Pump-1            PUMP       200.00     0  03:20              1.00
  CC-Pump-2            PUMP       200.00     0  03:20              1.00
  JK-Pump-1            PUMP       300.00     0  00:00              1.00
  JK-Pump-2            PUMP       683.00     0  02:10              1.00
  XR-Pump-1            PUMP        95.00     0  00:00              1.00
  XR-Pump-2            PUMP        95.00     0  00:00              1.00
  XR-Pump-3            PUMP        95.00     0  00:00              1.00
  XR-Pump-4            PUMP        95.00     0  00:00              1.00
  
  
  ***************************
  Flow Classification Summary
  ***************************
  
  -------------------------------------------------------------------------------------
                      Adjusted    ---------- Fraction of Time in Flow Class ---------- 
                       /Actual         Up    Down  Sub   Sup   Up    Down  Norm  Inlet 
  Conduit               Length    Dry  Dry   Dry   Crit  Crit  Crit  Crit  Ltd   Ctrl  
  -------------------------------------------------------------------------------------
  WS02003066WSF200        1.00   0.01  0.02  0.00  0.00  0.97  0.00  0.00  0.49  0.00
  WS02006287WS02006284    1.00   0.03  0.01  0.00  0.66  0.30  0.00  0.00  0.62  0.00
  WS02006284WS02006280    1.00   0.04  0.00  0.00  0.00  0.00  0.00  0.96  0.00  0.00
  WS02006280WS02006229    1.00   0.04  0.00  0.00  0.00  0.02  0.00  0.94  0.02  0.00
  WS02006229WS02006228    1.00   0.00  0.00  0.00  1.00  0.00  0.00  0.00  0.00  0.00
  WS02006256WS02006235    1.00   0.00  0.00  0.00  1.00  0.00  0.00  0.00  0.00  0.00
  WS02006253WS02006251    1.00   0.02  0.02  0.00  0.96  0.00  0.01  0.00  0.00  0.00
  WS02006252WS02006251    1.00   0.18  0.00  0.00  0.19  0.00  0.63  0.00  0.00  0.00
  WS02006251WS02006249    1.00   0.00  0.00  0.00  1.00  0.00  0.00  0.00  0.20  0.00
  WS02006249WS02006248    1.00   0.00  0.01  0.00  0.91  0.00  0.08  0.00  0.00  0.00
  WS02006248WS02006247    1.00   0.01  0.00  0.00  0.99  0.00  0.00  0.00  0.15  0.00
  WS02006247WS02006245    1.00   0.00  0.00  0.00  0.99  0.00  0.00  0.00  0.00  0.00
  WS02006245WS02006243    1.00   0.00  0.00  0.00  0.96  0.00  0.00  0.03  0.00  0.00
  WS02006243WS02006242    1.00   0.00  0.00  0.00  1.00  0.00  0.00  0.00  0.21  0.00
  WS02006242WS02006240    1.00   0.00  0.00  0.00  1.00  0.00  0.00  0.00  0.00  0.00
  WS02006240WS02006239    1.00   0.00  0.00  0.00  0.95  0.00  0.00  0.04  0.01  0.00
  WS02006239WS02006238    1.00   0.00  0.00  0.00  1.00  0.00  0.00  0.00  0.12  0.00
  WS02006238WS02006235    1.00   0.00  0.00  0.00  1.00  0.00  0.00  0.00  0.00  0.00
  WS02006235WS02006234    1.00   0.00  0.00  0.00  0.96  0.00  0.04  0.00  0.00  0.00
  WS02006234WS02006232    1.00   0.00  0.00  0.00  1.00  0.00  0.00  0.00  0.08  0.00
  WS02006232WS02006231    1.00   0.00  0.00  0.00  1.00  0.00  0.00  0.00  0.00  0.00
  WS02006231WS02006230    1.00   0.00  0.00  0.00  0.78  0.00  0.22  0.00  0.00  0.00
  WS02006230WS02006229    1.00   0.00  0.00  0.00  1.00  0.00  0.00  0.00  0.00  0.00
  WS02006228WS02006109    1.00   0.00  0.00  0.00  1.00  0.00  0.00  0.00  0.00  0.00
  WS02006116WS02004401    1.00   0.01  0.00  0.00  0.99  0.00  0.00  0.00  0.00  0.00
  WS02006115WS02006116    1.00   0.01  0.00  0.00  0.99  0.00  0.00  0.00  0.00  0.00
  WS02006113WS02006111    1.00   0.01  0.00  0.00  0.02  0.97  0.00  0.00  0.16  0.00
  WS02006112WS02006115    1.00   0.01  0.00  0.00  0.99  0.00  0.00  0.00  0.00  0.00
  WS02006111WS02006112    1.00   0.01  0.00  0.00  0.99  0.00  0.00  0.00  0.91  0.00
  WS02006110WS02006113    1.00   0.00  0.00  0.00  0.99  0.00  0.00  0.00  0.00  0.00
  WS02006109WS02006110    1.00   0.00  0.00  0.00  0.99  0.00  0.00  0.00  0.00  0.00
  WS02004411WS02004412    1.00   0.02  0.00  0.00  0.98  0.00  0.00  0.00  0.00  0.00
  WS02004401WS02004402    1.00   0.01  0.00  0.00  0.99  0.00  0.00  0.00  0.00  0.00
  WS02004413WS02003067    1.00   0.02  0.01  0.00  0.00  0.00  0.97  0.00  0.00  0.00
  WS02004412WS02004413    1.00   0.02  0.00  0.00  0.98  0.00  0.00  0.00  0.01  0.00
  WS02004410WS02004411    1.00   0.02  0.00  0.00  0.98  0.00  0.00  0.00  0.00  0.00
  WS02004409WS02004410    1.00   0.02  0.00  0.00  0.98  0.00  0.00  0.00  0.02  0.00
  WS02004407WS02004409    1.00   0.02  0.00  0.00  0.98  0.00  0.00  0.00  0.95  0.00
  WS02004406WS02004407    1.00   0.00  0.02  0.00  0.98  0.00  0.00  0.00  0.00  0.00
  WS02004405WS02004406    1.00   0.00  0.00  0.00  1.00  0.00  0.00  0.00  0.00  0.00
  WS02004404WS02004405    1.00   0.00  0.00  0.00  1.00  0.00  0.00  0.00  0.00  0.00
  WS02004403WS02004404    1.00   0.00  0.01  0.00  0.99  0.00  0.00  0.00  0.00  0.00
  WS02004402WS02004403    1.00   0.01  0.00  0.00  0.99  0.00  0.00  0.00  0.00  0.00
  WS02004139WS02001211    1.00   0.00  0.00  0.00  1.00  0.00  0.00  0.00  0.00  0.00
  WS02004138WS02004139    1.00   0.00  0.00  0.00  1.00  0.00  0.00  0.00  1.00  0.00
  WS02003067WS02003066    1.00   0.03  0.00  0.00  0.97  0.00  0.00  0.00  0.00  0.00
  WS02001213WS02003059    1.00   0.00  0.00  0.00  1.00  0.00  0.00  0.00  0.00  0.00
  WS02001212WS02001213    1.00   0.00  0.00  0.00  0.94  0.00  0.06  0.00  0.00  0.00
  WS02001211WS02001212    1.00   0.00  0.00  0.00  1.00  0.00  0.00  0.00  0.00  0.00
  WS02003072WS02003073    1.00   0.00  0.00  0.00  0.00  0.00  0.00  1.00  0.00  0.00
  WS02003069WS02003072    1.00   0.00  0.00  0.00  1.00  0.00  0.00  0.00  0.09  0.00
  WS02003060WS02003069    1.00   0.00  0.00  0.00  0.99  0.01  0.00  0.00  0.07  0.00
  WS02003059WS02003060    1.00   0.00  0.00  0.00  1.00  0.00  0.00  0.00  0.01  0.00
  HS02004901HS02004770    1.00   0.04  0.00  0.00  0.96  0.00  0.00  0.00  0.00  0.00
  HS02004876HS02004881    1.00   0.01  0.00  0.00  0.92  0.07  0.00  0.00  0.00  0.00
  HS02004870HS02004876    1.00   0.00  0.00  0.00  0.99  0.00  0.00  0.00  0.95  0.00
  HS02004842HS02004848    1.00   0.00  0.04  0.00  0.96  0.00  0.00  0.00  0.55  0.00
  HS02004837HS02004842    1.00   0.00  0.00  0.00  1.00  0.00  0.00  0.00  0.11  0.00
  HS02004830HS02004837    1.00   0.00  0.00  0.00  1.00  0.00  0.00  0.00  0.99  0.00
  HS02004824HS02004830    1.00   0.00  0.00  0.00  1.00  0.00  0.00  0.00  0.00  0.00
  HS02004817HS02004824    1.00   0.00  0.00  0.00  1.00  0.00  0.00  0.00  1.00  0.00
  HS02004770HS02004777    1.00   0.00  0.04  0.00  0.96  0.00  0.00  0.00  0.02  0.00
  HS02004799HS02004480    1.00   0.00  0.01  0.00  0.96  0.00  0.03  0.00  0.00  0.00
  HS02004792HS02004799    1.00   0.00  0.00  0.00  1.00  0.00  0.00  0.00  0.98  0.00
  HS02004788HS02004792    1.00   0.00  0.00  0.00  1.00  0.00  0.00  0.00  0.98  0.00
  HS02004785HS02004788    1.00   0.00  0.00  0.00  1.00  0.00  0.00  0.00  0.00  0.00
  HS02004777HS02004785    1.00   0.00  0.00  0.00  1.00  0.00  0.00  0.00  0.12  0.00
  HS02004480HS02004478    1.00   0.04  0.00  0.00  0.70  0.00  0.00  0.26  0.00  0.00
  HS02004479HS02004480    1.00   0.01  0.00  0.00  0.99  0.00  0.00  0.00  0.11  0.00
  HS02004862HS02004870    1.00   0.00  0.00  0.00  1.00  0.00  0.00  0.00  0.03  0.00
  HS02004848HS02004852    1.00   0.04  0.00  0.00  0.96  0.00  0.00  0.00  0.62  0.00
  HS02004856HS02004862    1.00   0.00  0.05  0.00  0.95  0.00  0.00  0.00  0.83  0.00
  HS02004852HS02004856    1.00   0.04  0.00  0.00  0.96  0.00  0.00  0.00  0.85  0.00
  HS02004802HS02004478    1.00   0.04  0.00  0.00  0.96  0.00  0.00  0.00  0.02  0.00
  HS02004478WS02006287    1.00   0.04  0.00  0.00  0.75  0.20  0.00  0.00  0.64  0.00
  HS02004817HS02004807    1.00   0.00  0.04  0.00  0.96  0.00  0.00  0.00  0.01  0.00
  HS02004807HS02004802    1.00   0.04  0.00  0.00  0.96  0.00  0.00  0.00  0.00  0.00
  YS02001759YS02001757    1.00   0.00  0.00  0.00  1.00  0.00  0.00  0.00  0.16  0.00
  YS02001762YS02001759    1.00   0.00  0.00  0.00  1.00  0.00  0.00  0.00  0.03  0.00
  YS02001765YS02001762    1.00   0.00  0.00  0.00  1.00  0.00  0.00  0.00  0.13  0.00
  YS02001770YS02001767    1.00   0.00  0.00  0.00  1.00  0.00  0.00  0.00  0.00  0.00
  YS02001774YS02001770    1.00   0.00  0.04  0.00  0.96  0.00  0.00  0.00  0.03  0.00
  YS02001779YS02001774    1.00   0.00  0.00  0.00  1.00  0.00  0.00  0.00  0.18  0.00
  YS02001649YS02001757    1.00   0.00  0.00  0.00  1.00  0.00  0.00  0.00  0.16  0.00
  YS02001767YS02001765    1.00   0.00  0.00  0.00  1.00  0.00  0.00  0.00  0.00  0.00
  YS02006561YS02001783    1.00   0.05  0.00  0.00  0.33  0.62  0.00  0.00  0.46  0.00
  YS02001783YS02001784    1.00   0.00  0.05  0.00  0.95  0.00  0.00  0.00  0.01  0.00
  YS02001784YS02001785    1.00   0.00  0.00  0.00  1.00  0.00  0.00  0.00  0.17  0.00
  YS02001788YS02001790    1.00   0.00  0.00  0.00  0.40  0.60  0.00  0.00  0.37  0.00
  YS02001790YS02001791    1.00   0.00  0.00  0.00  0.36  0.64  0.00  0.00  0.48  0.00
  YS02001791YS02001793    1.00   0.00  0.00  0.00  0.40  0.60  0.00  0.00  0.03  0.00
  YS02001910YS02001907    1.00   0.00  0.00  0.00  0.99  0.00  0.00  0.01  0.12  0.00
  YS02001786YS02001788    1.00   0.00  0.00  0.00  0.37  0.63  0.00  0.00  0.00  0.00
  YS02001915YS02001910    1.00   0.00  0.00  0.00  0.99  0.01  0.00  0.00  0.15  0.00
  YS02001918YS02001915    1.00   0.00  0.00  0.00  0.99  0.01  0.00  0.00  0.55  0.00
  YS02001923YS02001920    1.00   0.00  0.00  0.00  1.00  0.00  0.00  0.00  0.84  0.00
  YS02001926YS02001923    1.00   0.00  0.02  0.00  0.13  0.00  0.85  0.00  0.00  0.00
  YS02001929YS02001926    1.00   0.00  0.04  0.00  0.96  0.00  0.00  0.00  0.77  0.00
  YS02001920YS02001918    1.00   0.00  0.00  0.00  1.00  0.00  0.00  0.00  0.00  0.00
  YS02001629YS02163301    1.00   0.04  0.00  0.00  0.96  0.00  0.00  0.00  0.00  0.00
  YS02001619YS02001622    1.00   0.04  0.00  0.00  0.96  0.00  0.00  0.00  0.00  0.00
  YS02001622YS02001625    1.00   0.04  0.00  0.00  0.96  0.00  0.00  0.00  0.04  0.00
  YS02001625YS02001629    1.00   0.04  0.01  0.00  0.93  0.00  0.02  0.00  0.00  0.00
  YS02163301YS02001633    1.00   0.00  0.04  0.00  0.96  0.00  0.00  0.00  0.00  0.00
  YS02163601YS02164001    1.00   0.00  0.03  0.00  0.97  0.00  0.00  0.00  0.00  0.00
  YS02164001YS02001641    1.00   0.00  0.02  0.00  0.97  0.00  0.00  0.00  0.06  0.00
  YS02001641YS02001644    1.00   0.00  0.00  0.00  1.00  0.00  0.00  0.00  0.00  0.00
  YS02001647YS02001649    1.00   0.00  0.05  0.00  0.95  0.00  0.00  0.00  0.01  0.00
  YS02006553YS02006556    1.00   0.01  0.00  0.00  0.99  0.00  0.00  0.00  0.03  0.00
  YS02006556YS02006558    1.00   0.00  0.00  0.00  1.00  0.00  0.00  0.00  0.00  0.00
  YSB6556YSB1171          1.00   0.02  0.02  0.00  0.96  0.00  0.00  0.00  0.00  0.00
  YS02001907YS02006553    1.00   0.00  0.01  0.00  0.99  0.00  0.00  0.00  0.00  0.00
  YS02006558YS02006561    1.00   0.05  0.00  0.00  0.13  0.82  0.00  0.00  0.49  0.00
  YS02001633YS02163601    1.00   0.00  0.00  0.00  1.00  0.00  0.00  0.00  0.15  0.00
  YS02001644YS02001647    1.00   0.00  0.05  0.00  0.95  0.00  0.00  0.00  0.00  0.00
  YS02001745YS02001748    1.00   0.00  0.00  0.00  0.91  0.01  0.00  0.08  0.04  0.00
  YS02001748YS02001751    1.00   0.00  0.00  0.00  0.97  0.03  0.00  0.00  0.15  0.00
  YS02001751YS02001754    1.00   0.00  0.00  0.00  0.94  0.00  0.00  0.06  0.02  0.00
  YS02001754YS02001757    1.00   0.00  0.00  0.00  1.00  0.00  0.00  0.00  0.18  0.00
  YS02001882YS02001884    1.00   0.04  0.00  0.00  0.96  0.00  0.00  0.00  0.00  0.00
  YS02001884YS02001887    1.00   0.02  0.01  0.00  0.97  0.00  0.00  0.00  0.00  0.00
  YS02001890YS02001895    1.00   0.00  0.04  0.00  0.96  0.00  0.00  0.00  0.00  0.00
  YS02001895YS02001898    1.00   0.04  0.00  0.00  0.95  0.00  0.01  0.00  0.00  0.00
  YS02001898YS02001901    1.00   0.04  0.00  0.00  0.96  0.00  0.00  0.00  0.01  0.00
  YS02001901YS02001904    1.00   0.05  0.00  0.00  0.95  0.00  0.00  0.00  0.00  0.00
  YS02001904YS02001907    1.00   0.00  0.04  0.00  0.95  0.00  0.00  0.00  0.00  0.00
  YS02001887YS02001890    1.00   0.00  0.00  0.00  0.99  0.00  0.01  0.00  0.00  0.00
  YS02001652YS02001649    1.00   0.00  0.00  0.00  1.00  0.00  0.00  0.00  0.16  0.00
  YS02001655YS02001652    1.00   0.00  0.00  0.00  0.94  0.00  0.00  0.05  0.02  0.00
  YS02001658YS02001655    1.00   0.00  0.04  0.00  0.93  0.03  0.00  0.00  0.08  0.00
  YS02001661YS02001658    1.00   0.04  0.00  0.00  0.91  0.05  0.00  0.00  0.08  0.00
  YS02001664YS02001661    1.00   0.04  0.00  0.00  0.92  0.04  0.00  0.00  0.19  0.00
  YSB1154YSB6556          1.00   0.04  0.00  0.00  0.96  0.00  0.00  0.00  0.01  0.00
  YSB1174YSB1171          1.00   0.02  0.01  0.00  0.97  0.00  0.00  0.00  0.00  0.00
  YSB1171HS02004479       1.00   0.02  0.00  0.00  0.98  0.00  0.00  0.00  0.10  0.00
  HS02004881HS02006253    1.00   0.02  0.00  0.00  0.75  0.01  0.00  0.22  0.58  0.00
  YS02001793JiankangQianchi    1.00   0.00  0.00  0.00  0.65  0.35  0.00  0.00  0.37  0.00
  YS02001757CaochengTiaoxuchi    1.00   0.00  0.07  0.00  0.93  0.00  0.00  0.00  0.00  0.00
  WSF200WS02003060        1.00   0.00  0.01  0.00  0.97  0.03  0.00  0.00  0.30  0.00
  1                       1.00   0.00  0.00  0.00  0.00  1.00  0.00  0.00  0.53  0.00
  
  
  *************************
  Conduit Surcharge Summary
  *************************
  
  ----------------------------------------------------------------------------
                                                           Hours        Hours 
                         --------- Hours Full --------   Above Full   Capacity
  Conduit                Both Ends  Upstream  Dnstream   Normal Flow   Limited
  ----------------------------------------------------------------------------
  WS02006229WS02006228        4.48      4.54      4.48      5.24         4.48
  WS02006256WS02006235        6.15      6.16      6.88      4.61         0.01
  WS02006253WS02006251        2.53      2.53      2.59      0.01         0.01
  WS02006252WS02006251        2.24      2.24      3.04      2.73         0.01
  WS02006251WS02006249        2.55      2.55      2.62      2.08         1.95
  WS02006249WS02006248        2.55      2.55      2.62      4.17         0.01
  WS02006248WS02006247        2.61      2.61      2.87      0.01         0.01
  WS02006247WS02006245        2.85      2.92      2.85      4.48         2.81
  WS02006245WS02006243        2.89      2.90      3.06      0.50         0.66
  WS02006243WS02006242        3.14      3.14      3.64      0.01         0.01
  WS02006242WS02006240        3.53      3.53      3.71      2.88         0.01
  WS02006240WS02006239        3.53      3.55      3.55      1.81         1.32
  WS02006239WS02006238        3.65      3.69      3.84      2.05         1.55
  WS02006238WS02006235        3.81      3.81      3.99      0.01         0.01
  WS02006235WS02006234        3.49      3.49      3.75      6.10         0.01
  WS02006234WS02006232        3.68      3.68      4.24      1.72         1.61
  WS02006232WS02006231        2.51      2.51      4.24      1.95         0.01
  WS02006231WS02006230        2.17      2.17      2.59      6.17         0.01
  WS02006230WS02006229        4.89      5.13      4.89      6.26         4.89
  WS02006228WS02006109        4.50      4.73      4.50      5.61         4.50
  WS02006116WS02004401        0.20      0.20      0.21      0.17         0.17
  WS02006115WS02006116        0.14      0.14      0.14      0.11         0.11
[...]
  YS02001765YS02001762        5.84      5.84      5.87      0.01         0.01
  YS02001770YS02001767        5.81      5.81      5.81      0.19         0.87
  YS02001774YS02001770        5.80      5.80      5.86      0.01         0.01
  YS02001779YS02001774        5.68      5.68      5.86      0.01         0.01
  YS02001649YS02001757        5.87      5.87      5.98      0.01         0.01
  YS02001767YS02001765        5.81      5.81      5.84      0.01         0.01
  YS02006561YS02001783        0.77      0.77      1.04      0.01         0.01
  YS02001783YS02001784        1.02      1.04      1.02      1.40         1.01
  YS02001784YS02001785        0.97      1.02      0.97      2.39         0.97
  YS02001788YS02001790        0.91      0.91      1.78      0.01         0.01
  YS02001790YS02001791        1.78      1.78      1.89      0.87         0.84
  YS02001791YS02001793        1.89      1.89      2.25      0.01         0.01
  YS02001910YS02001907        1.06      1.06      1.76      0.01         0.01
  YS02001786YS02001788        0.91      0.97      0.91      1.94         0.91
  YS02001915YS02001910        0.89      0.89      1.06      0.01         0.01
  YS02001918YS02001915        0.71      0.71      0.89      0.01         0.01
  YS02001923YS02001920        0.53      0.53      0.74      0.01         0.01
  YS02001920YS02001918        0.71      0.71      0.74      0.01         0.01
  YS02001629YS02163301        5.80      5.80      5.81      0.01         0.01
  YS02001619YS02001622        5.47      5.47      5.51      0.01         0.01
  YS02001622YS02001625        5.51      5.51      5.76      0.01         0.01
  YS02001625YS02001629        5.49      5.49      5.76      0.01         0.01
  YS02163301YS02001633        5.81      5.81      5.84      0.01         0.01
  YS02163601YS02164001        5.84      5.84      5.87      0.01         0.01
  YS02164001YS02001641        5.84      5.84      5.85      0.01         0.03
  YS02001641YS02001644        5.85      5.85      5.85      1.52         1.69
  YS02001647YS02001649        5.75      5.75      5.87      0.01         0.01
  YS02006553YS02006556        1.31      1.31      1.87      0.01         0.01
  YS02006556YS02006558        1.52      1.52      1.96      0.01         0.01
  YS02001907YS02006553        2.43      2.43      2.63      0.01         0.01
  YS02006558YS02006561        0.90      1.26      0.90      2.24         0.90
  YS02001633YS02163601        5.83      5.83      5.87      0.01         0.01
  YS02001644YS02001647        5.75      5.75      5.85      0.01         0.01
  YS02001745YS02001748        0.01      0.01      5.31      0.01         0.01
  YS02001748YS02001751        5.36      5.36      5.48      0.01         0.01
  YS02001751YS02001754        5.47      5.47      5.70      0.01         0.01
  YS02001754YS02001757        5.74      5.74      5.98      0.01         0.01
  YS02001882YS02001884        0.90      0.90      0.93      0.01         0.01
  YS02001884YS02001887        0.97      0.97      0.99      0.01         0.01
  YS02001890YS02001895        0.88      0.88      1.08      0.01         0.01
  YS02001895YS02001898        0.86      0.86      0.88      0.01         0.01
  YS02001898YS02001901        0.89      0.89      0.96      0.01         0.01
  YS02001901YS02001904        0.95      0.95      0.96      0.01         0.01
  YS02001904YS02001907        0.95      0.95      1.89      0.01         0.01
  YS02001887YS02001890        1.02      1.02      1.04      0.01         0.01
  YS02001652YS02001649        5.76      5.76      5.87      0.01         0.01
  YS02001655YS02001652        5.50      5.50      5.73      0.01         0.01
  YS02001658YS02001655        5.33      5.33      5.50      0.01         0.01
  YS02001661YS02001658        0.15      0.15      5.33      0.01         0.01
  YS02001664YS02001661        0.01      0.01      1.12      0.01         0.01
  HS02004881HS02006253        0.01      0.01      1.82      0.01         0.01
  YS02001793JiankangQianchi        2.16      2.16      3.94      0.01         0.01
  YS02001757CaochengTiaoxuchi        5.21      5.21      5.98      0.01         0.01
  
  
  ***************
  Pumping Summary
  ***************
  
  ---------------------------------------------------------------------------------------------------------
                                                  Min       Avg       Max     Total     Power    % Time Off
                        Percent   Number of      Flow      Flow      Flow    Volume     Usage    Pump Curve
  Pump                 Utilized   Start-Ups       LPS       LPS       LPS  10^6 ltr     Kw-hr    Low   High
  ---------------------------------------------------------------------------------------------------------
  CC-Pump-1               63.82           2      0.00    178.45    200.00     3.180      3.66    0.0    0.0
  CC-Pump-2               44.67           5      0.00    120.68    200.00     1.860      2.65    0.0    0.0
  JK-Pump-1               63.83           5      0.00    224.35    300.00     3.965     61.27    0.0    0.0
  JK-Pump-2               53.19           4      0.00    391.41    683.00     6.158     92.83    0.0   96.3
  XR-Pump-1               95.74           3      0.00     93.25     95.00     2.451     22.34    0.0    0.0
  XR-Pump-2               95.74           3      0.00     93.25     95.00     2.451     22.34    0.0    0.0
  XR-Pump-3               95.74           3      0.00     93.25     95.00     2.451     22.34    0.0    0.0
  XR-Pump-4               95.74           3      0.00     93.25     95.00     2.451     22.34    0.0    0.0
  
  
  ***************************
  Link Pollutant Load Summary
  ***************************
  
  ------------------------------------------------------------------------------------------
                                 COD            SS            TN            TP         NH4-N
  Link                            kg            kg            kg            kg            kg
  ------------------------------------------------------------------------------------------
  WS02003066WSF200           851.999      1562.887        22.561         1.967        11.892
  WS02006287WS02006284       268.045       498.179         9.346         0.943         5.214
  WS02006284WS02006280       268.528       498.957         9.393         0.949         5.243
  WS02006280WS02006229       268.493       498.892         9.391         0.948         5.242
  WS02006229WS02006228       854.269      1567.068        22.085         1.893        11.566
  WS02006256WS02006235       188.720       344.239         4.288         0.340         2.185
  WS02006253WS02006251        50.208        96.785         1.141         0.087         0.569
  WS02006252WS02006251       410.756       742.438         8.618         0.616         4.235
  WS02006251WS02006249       453.577       826.108         9.616         0.693         4.737
  WS02006249WS02006248       409.029       745.107         8.677         0.625         4.274
  WS02006248WS02006247       408.476       744.174         8.665         0.624         4.268
  WS02006247WS02006245       407.678       742.758         8.647         0.623         4.259
  WS02006245WS02006243       406.870       741.413         8.626         0.621         4.249
  WS02006243WS02006242       405.721       739.390         8.603         0.620         4.237
  WS02006242WS02006240       404.619       737.481         8.578         0.618         4.225
  WS02006240WS02006239       404.353       737.132         8.570         0.617         4.221
  WS02006239WS02006238       405.161       738.581         8.599         0.620         4.237
  WS02006238WS02006235       405.584       739.191         8.615         0.622         4.247
  WS02006235WS02006234       589.727      1075.128        12.789         0.952         6.373
  WS02006234WS02006232       589.181      1074.156        12.782         0.952         6.370
  WS02006232WS02006231       588.445      1072.867        12.765         0.951         6.361
  WS02006231WS02006230       587.647      1071.472        12.747         0.949         6.353
  WS02006230WS02006229       586.665      1069.754        12.721         0.947         6.339
  WS02006228WS02006109       853.460      1565.640        22.067         1.892        11.557
  WS02006116WS02004401       864.315      1584.586        22.861         1.991        12.045
  WS02006115WS02006116       865.649      1586.921        22.897         1.994        12.064
  WS02006113WS02006111       859.260      1574.508        22.807         1.987        12.027
  WS02006112WS02006115       867.054      1589.379        22.942         1.998        12.089
  WS02006111WS02006112       858.744      1573.600        22.794         1.986        12.020
  WS02006110WS02006113       859.979      1575.772        22.830         1.989        12.039
  WS02006109WS02006110       861.102      1577.723        22.868         1.993        12.061
  WS02004411WS02004412       855.406      1568.813        22.682         1.979        11.959
  WS02004401WS02004402       863.013      1582.306        22.820         1.987        12.023
  WS02004413WS02003067       852.626      1563.977        22.580         1.969        11.902
  WS02004412WS02004413       854.153      1566.629        22.641         1.975        11.936
  WS02004410WS02004411       856.483      1570.692        22.715         1.982        11.978
  WS02004409WS02004410       857.612      1572.662        22.752         1.986        11.998
  WS02004407WS02004409       858.598      1574.383        22.781         1.988        12.013
  WS02004406WS02004407       858.913      1574.933        22.786         1.988        12.015
  WS02004405WS02004406       860.376      1577.476        22.840         1.994        12.046
  WS02004404WS02004405       861.292      1579.125        22.843         1.993        12.044
  WS02004403WS02004404       860.815      1578.460        22.754         1.981        11.987
  WS02004402WS02004403       861.849      1580.271        22.787         1.984        12.005
  WS02004139WS02001211      1386.098      2283.960       115.195        14.106        71.137
  WS02004138WS02004139      1392.891      2295.173       115.745        14.173        71.476
  WS02003067WS02003066       852.208      1563.248        22.569         1.968        11.896
  WS02001213WS02003059      1418.120      2334.430       118.496        14.522        73.210
  WS02001212WS02001213      1427.934      2350.542       119.318        14.623        73.718
  WS02001211WS02001212      1430.092      2354.061       119.505        14.646        73.834
  WS02003072WS02003073      2369.305      4054.973       150.957        17.733        91.305
  WS02003069WS02003072      2374.783      4064.047       151.374        17.783        91.562
  WS02003060WS02003069      2377.356      4068.448       151.516        17.799        91.646
  WS02003059WS02003060      1414.541      2328.496       118.213        14.488        73.036
  HS02004901HS02004770        10.270        19.476         0.195         0.015         0.091
  HS02004876HS02004881        37.317        72.577         0.843         0.062         0.416
  HS02004870HS02004876        28.160        54.627         0.678         0.051         0.338
  HS02004842HS02004848         5.467        10.276         0.115         0.008         0.053
  HS02004837HS02004842        10.072        17.582         0.584         0.067         0.347
  HS02004830HS02004837        65.639       112.703         4.557         0.546         2.785
  HS02004824HS02004830        66.389       113.905         4.628         0.555         2.829
  HS02004817HS02004824        88.205       156.973         5.083         0.584         3.051
  HS02004770HS02004777        39.294        75.463         0.819         0.055         0.377
  HS02004799HS02004480       131.404       245.357         3.680         0.335         1.932
  HS02004792HS02004799       119.081       220.653         3.497         0.327         1.853
  HS02004788HS02004792        68.394       126.852         2.388         0.235         1.309
  HS02004785HS02004788        40.732        77.757         0.969         0.074         0.471
  HS02004777HS02004785        40.058        76.663         0.908         0.067         0.434
  HS02004480HS02004478       165.944       312.578         4.243         0.375         2.196
  HS02004479HS02004480        38.146        72.975         0.884         0.079         0.462
  HS02004862HS02004870        21.016        40.116         0.536         0.043         0.270
  HS02004848HS02004852         8.057        15.279         0.167         0.011         0.077
  HS02004856HS02004862        14.071        27.340         0.284         0.019         0.133
  HS02004852HS02004856         8.064        15.290         0.167         0.011         0.077
  HS02004802HS02004478       102.885       186.886         5.162         0.575         3.055
  HS02004478WS02006287       268.244       498.516         9.363         0.945         5.224
  HS02004817HS02004807        86.888       154.860         4.957         0.568         2.972
  HS02004807HS02004802       103.112       187.240         5.194         0.580         3.075
  YS02001759YS02001757       351.788       639.344         7.080         0.488         3.459
  YS02001762YS02001759       174.602       318.874         3.725         0.260         1.842
  YS02001765YS02001762       174.412       318.817         3.743         0.262         1.854
  YS02001770YS02001767       172.927       317.175         3.508         0.229         1.701
  YS02001774YS02001770       162.399       313.915         3.125         0.206         1.509
  YS02001779YS02001774       161.109       311.245         3.206         0.220         1.568
  YS02001649YS02001757       273.901       488.278         5.489         0.384         2.628
  YS02001767YS02001765       174.721       319.615         3.766         0.264         1.867
  YS02006561YS02001783       936.218      1716.967        19.834         1.488         9.898
  YS02001783YS02001784       936.089      1716.766        19.829         1.488         9.896
  YS02001784YS02001785       943.418      1728.516        20.542         1.577        10.342
  YS02001788YS02001790       944.012      1729.487        20.615         1.587        10.388
  YS02001790YS02001791       945.105      1731.275        20.723         1.600        10.456
  YS02001791YS02001793       945.007      1731.096        20.719         1.600        10.453
  YS02001910YS02001907       330.140       599.287         8.232         0.642         4.253
  YS02001786YS02001788       943.613      1728.843        20.570         1.581        10.359
  YS02001915YS02001910       330.232       599.428         8.189         0.636         4.224
  YS02001918YS02001915       159.964       278.050         4.661         0.434         2.538
  YS02001923YS02001920       137.649       241.482         2.675         0.188         1.302
  YS02001926YS02001923       136.679       239.900         2.595         0.178         1.253
  YS02001929YS02001926       136.177       239.042         2.555         0.174         1.228
  YS02001920YS02001918       157.930       274.051         4.592         0.427         2.500
  YS02001629YS02163301       103.433       183.272         2.169         0.140         1.011
  YS02001619YS02001622       146.384       262.913         3.031         0.197         1.414
  YS02001622YS02001625       145.230       261.091         3.003         0.195         1.401
  YS02001625YS02001629       104.539       185.103         2.194         0.141         1.022
  YS02163301YS02001633       103.150       182.797         2.162         0.140         1.009
  YS02163601YS02164001       361.949       646.045         7.114         0.502         3.403
  YS02164001YS02001641       361.455       645.215         7.094         0.500         3.391
  YS02001641YS02001644       361.695       645.548         7.093         0.500         3.390
  YS02001647YS02001649       322.428       583.069         6.359         0.445         3.028
  YS02006553YS02006556       657.677      1200.499        14.235         1.095         7.179
  YS02006556YS02006558       657.632      1200.408        14.204         1.090         7.158
  YSB6556YSB1171              21.953        42.197         0.451         0.038         0.229
  YS02001907YS02006553       657.774      1200.696        14.249         1.097         7.188
  YS02006558YS02006561       936.224      1716.965        19.834         1.488         9.898
  YS02001633YS02163601       362.651       647.132         7.094         0.498         3.386
  YS02001644YS02001647       328.863       594.556         6.468         0.452         3.079
  YS02001745YS02001748       210.414       387.008         4.761         0.334         2.381
  YS02001748YS02001751       208.398       383.201         4.798         0.343         2.414
  YS02001751YS02001754       207.444       381.639         4.781         0.342         2.406
  YS02001754YS02001757       208.209       382.791         4.945         0.365         2.513
  YS02001882YS02001884         2.937         5.074         0.059         0.005         0.029
  YS02001884YS02001887         6.827        12.095         0.133         0.010         0.066
  YS02001890YS02001895       389.429       720.584         7.188         0.539         3.508
  YS02001895YS02001898       389.248       720.332         7.182         0.539         3.504
  YS02001898YS02001901       389.052       720.004         7.177         0.538         3.502
  YS02001901YS02001904       388.914       719.813         7.184         0.540         3.507
  YS02001904YS02001907       389.153       720.185         7.238         0.547         3.542
  YS02001887YS02001890       390.214       721.752         7.243         0.546         3.541
  YS02001652YS02001649       152.530       279.164         3.110         0.224         1.458
  YS02001655YS02001652       153.054       280.024         3.124         0.225         1.465
  YS02001658YS02001655       152.467       279.106         3.035         0.213         1.408
  YS02001661YS02001658       156.302       286.012         3.112         0.218         1.443
  YS02001664YS02001661       177.406       321.160         3.580         0.250         1.657
  YSB1154YSB6556              21.532        41.528         0.402         0.032         0.198
  YSB1174YSB1171              14.655        28.291         0.298         0.024         0.150
  YSB1171HS02004479           38.105        72.909         0.888         0.079         0.465
  HS02004881HS02006253        42.376        82.777         0.924         0.067         0.453
  YS02001793JiankangQianchi       949.124      1737.806        20.897         1.618        10.556
  YS02001757CaochengTiaoxuchi       652.507      1167.871        13.832         0.982         6.796
  WSF200WS02003060           851.926      1562.778        22.563         1.967        11.893
  1                         2376.490      4066.193       151.770        17.837        91.819
  CC-Pump-1                  256.865       463.722         5.393         0.385         2.650
  CC-Pump-2                  153.928       278.780         3.225         0.231         1.585
  JK-Pump-1                  242.201       444.002         5.418         0.425         2.750
  JK-Pump-2                  463.177       863.228         9.644         0.725         4.805
  XR-Pump-1                  349.189       575.375        29.019         3.553        17.920
  XR-Pump-2                  349.189       575.375        29.019         3.553        17.920
  XR-Pump-3                  349.189       575.375        29.019         3.553        17.920
  XR-Pump-4                  349.189       575.375        29.019         3.553        17.920
  

  Analysis begun on:  Wed Jul 14 10:04:01 2021
  Analysis ended on:  Wed Jul 14 10:04:04 2021
  Total elapsed time: 00:00:03