
  EPA STORM WATER MANAGEMENT MODEL - VERSION 5.1 (Build 5.3.0.dev0)
  --------------------------------------------------------------

  WARNING 04: minimum elevation drop used for Conduit WS02004404WS02004405
  WARNING 03: negative offset ignored for Link YS02001904YS02001907
  
  *********************************************************
  NOTE: The summary statistics displayed in this report are
  based on results found at every computational time step,  
  not just on results from each reporting time step.
  *********************************************************
  
  ****************
  Analysis Options
  ****************
  Flow Units ............... LPS
  Process Models:
    Rainfall/Runoff ........ YES
    RDII ................... NO
    Snowmelt ............... NO
    Groundwater ............ NO
    Flow Routing ........... YES
    Ponding Allowed ........ NO
    Water Quality .......... YES
  Infiltration Method ...... HORTON
  Flow Routing Method ...... DYNWAVE
  Surcharge Method ......... EXTRAN
  Starting Date ............ 08/28/2015 08:00:00
  Ending Date .............. 08/28/2015 15:50:00
  Antecedent Dry Days ...... 8.0
  Report Time Step ......... 00:01:00
  Wet Time Step ............ 00:01:00
  Dry Time Step ............ 00:01:00
  Routing Time Step ........ 5.00 sec
  Variable Time Step ....... YES
  Maximum Trials ........... 8
  Number of Threads ........ 4
  Head Tolerance ........... 0.001500 m
  
  
  **************************        Volume         Depth
  Runoff Quantity Continuity     hectare-m            mm
  **************************     ---------       -------
  Total Precipitation ......         5.556        12.164
  Evaporation Loss .........         0.000         0.000
  Infiltration Loss ........         1.002         2.194
  Surface Runoff ...........         3.688         8.075
  Final Storage ............         0.866         1.897
  Continuity Error (%) .....        -0.019
  
  
  **************************           COD            SS            TN            TP         NH4-N
  Runoff Quality Continuity             kg            kg            kg            kg            kg
  **************************    ----------    ----------    ----------    ----------    ----------
  Initial Buildup ..........     41378.656     70582.865      1804.177       168.684      1032.807
  Surface Buildup ..........        19.275        34.271         2.335         0.213         1.362
  Wet Deposition ...........         0.000         0.000         0.000         0.000         0.000
  Sweeping Removal .........         0.000         0.000         0.000         0.000         0.000
  Infiltration Loss ........        84.023       157.502         1.599         0.111         0.761
  BMP Removal ..............         0.000         0.000         0.000         0.000         0.000
  Surface Runoff ...........      3122.074      5752.154        60.620         4.098        28.771
  Remaining Buildup ........     38190.779     64705.500      1744.271       164.686      1004.628
  Continuity Error (%) .....         0.003         0.003         0.001         0.001         0.001
  
  
  **************************        Volume        Volume
  Flow Routing Continuity        hectare-m      10^6 ltr
  **************************     ---------     ---------
  Dry Weather Inflow .......         0.616         6.165
  Wet Weather Inflow .......         3.687        36.870
  Groundwater Inflow .......         0.000         0.000
  RDII Inflow ..............         0.000         0.000
  External Inflow ..........         0.102         1.024
  External Outflow .........         2.064        20.641
  Flooding Loss ............         1.950        19.497
  Evaporation Loss .........         0.000         0.000
  Exfiltration Loss ........         0.000         0.000
  Initial Stored Volume ....         0.076         0.761
  Final Stored Volume ......         0.596         5.963
  Continuity Error (%) .....        -2.858
  
  
  **************************           COD            SS            TN            TP         NH4-N
  Quality Routing Continuity            kg            kg            kg            kg            kg
  **************************    ----------    ----------    ----------    ----------    ----------
  Dry Weather Inflow .......      1541.201      2465.922       147.955        18.494        92.472
  Wet Weather Inflow .......      3121.299      5750.846        60.604         4.097        28.763
  Groundwater Inflow .......         0.000         0.000         0.000         0.000         0.000
  RDII Inflow ..............         0.000         0.000         0.000         0.000         0.000
  External Inflow ..........       183.418       293.469        17.608         2.201        11.005
  External Outflow .........      2402.603      4107.696       153.871        18.093        93.111
  Flooding Loss ............      1790.881      3290.972        46.096         4.007        24.218
  Exfiltration Loss ........         0.000         0.000         0.000         0.000         0.000
  Mass Reacted .............         0.000         0.000         0.000         0.000         0.000
  Initial Stored Mass ......         0.000         0.000         0.000         0.000         0.000
  Final Stored Mass ........       482.591       817.026        22.263         2.393        12.940
  Continuity Error (%) .....         3.505         3.461         1.741         1.209         1.491
  
  
  *************************
  Highest Continuity Errors
  *************************
  Node HS02004842 (14.53%)
  Node JK-storage (-12.66%)
  Node YS02001884 (11.27%)
  Node YSB1171 (2.74%)
  Node HS02004817 (2.73%)
  
  
  ***************************
  Time-Step Critical Elements
  ***************************
  Link WS02006252WS02006251 (62.19%)
  Link WS02006280WS02006229 (10.72%)
  Link WS02006238WS02006235 (4.78%)
  Link YS02001793JiankangQianchi (4.56%)
  Link WS02004404WS02004405 (4.30%)
  
  
  ********************************
  Highest Flow Instability Indexes
  ********************************
  Link YS02163601YS02164001 (47)
  Link YS02001619YS02001622 (47)
  Link YS02001629YS02163301 (46)
  Link YS02163301YS02001633 (46)
  Link YS02164001YS02001641 (42)
  
  
  *************************
  Routing Time Step Summary
  *************************
  Minimum Time Step           :     0.25 sec
  Average Time Step           :     1.17 sec
  Maximum Time Step           :     5.00 sec
  Percent in Steady State     :    -0.00
  Average Iterations per Step :     5.03
  Percent Not Converging      :    27.01
  
  
  ***************************
  Subcatchment Runoff Summary
  ***************************
  
  ------------------------------------------------------------------------------------------------------------------------------
                            Total      Total      Total      Total     Imperv       Perv      Total       Total     Peak  Runoff
                           Precip      Runon       Evap      Infil     Runoff     Runoff     Runoff      Runoff   Runoff   Coeff
  Subcatchment                 mm         mm         mm         mm         mm         mm         mm    10^6 ltr      LPS
  ------------------------------------------------------------------------------------------------------------------------------
  sub0                      12.16       0.00       0.00       0.65      11.27       0.20      11.47        0.01     1.99   0.943
  sub1                      12.16       0.00       0.00       1.12      10.73       0.22      10.95        0.07    14.96   0.900
  sub2                      12.16       0.00       0.00       4.23       7.58       0.27       7.85        0.07    15.08   0.646
  sub3                      12.16       0.00       0.00       4.29       7.54       0.21       7.75        0.17    34.61   0.637
  sub4                      12.16       0.00       0.00       1.19      10.57       0.14      10.71        0.22    42.34   0.881
  sub5                      12.16       0.00       0.00       0.69      11.21       0.16      11.38        0.13    26.18   0.935
  sub7                      12.16       0.00       0.00       0.88      11.01       0.22      11.22        0.04     7.95   0.923
  sub8                      12.16       0.00       0.00       0.89      11.00       0.21      11.20        0.07    14.89   0.921
  sub9                      12.16       0.00       0.00       0.89      10.99       0.21      11.20        0.05    11.18   0.921
  sub10                     12.16       0.00       0.00       0.79      11.10       0.18      11.28        0.12    25.49   0.928
  sub11                     12.16       0.00       0.00       0.78      11.12       0.19      11.31        0.13    27.35   0.930
  sub12                     12.16       0.00       0.00       1.27      10.53       0.31      10.85        0.09    20.52   0.892
  sub14                     12.16       0.00       0.00       0.89      10.99       0.20      11.20        0.11    22.08   0.920
  sub15                     12.16       0.00       0.00       3.28       8.45       0.37       8.82        0.15    32.49   0.725
  sub16                     12.16       0.00       0.00       3.51       8.11       0.50       8.61        0.09    20.36   0.708
  sub17                     12.16       0.00       0.00       3.41       8.23       0.48       8.71        0.07    16.72   0.716
  sub22                     12.16       0.00       0.00       4.80       6.89       0.43       7.32        0.46   102.62   0.602
  sub23                     12.16       0.00       0.00       4.05       7.62       0.45       8.07        0.38    85.35   0.663
  sub60                     12.16       0.00       0.00       1.42       8.82       0.04       8.86        2.69   336.84   0.729
  sub61                     12.16       0.00       0.00       2.01       8.94       0.06       9.00        2.78   399.45   0.740
  sub62                     12.16       0.00       0.00       0.92       9.73       0.05       9.78        3.01   415.79   0.804
  sub63                     12.16       0.00       0.00       3.46       7.82       0.06       7.88        2.39   361.21   0.648
  sub64                     12.16       0.00       0.00       1.78       8.47       0.04       8.51        2.59   320.97   0.699
  sub65                     12.16       0.00       0.00       1.54       8.61       0.04       8.65        2.66   326.54   0.711
  sub66                     12.16       0.00       0.00       3.49       7.26       0.04       7.30        2.24   290.53   0.600
  sub67                     12.16       0.00       0.00       0.91      10.24       0.07      10.31        3.18   494.23   0.848
  sub68                     12.16       0.00       0.00       1.64       9.40       0.06       9.46        2.91   432.52   0.778
  sub69                     12.16       0.00       0.00       1.73       9.72       0.09       9.82        2.29   383.95   0.807
  sub70                     12.16      10.02       0.00       6.98      13.09       0.56      13.65        3.12   394.93   0.615
  sub71                     12.16       0.00       0.00       0.93       9.48       0.05       9.53        2.25   296.34   0.783
  sub72                     12.16       0.00       0.00       0.83       7.62       0.02       7.64        1.56   151.13   0.628
  1                         12.16      13.29       0.00       1.37      14.64       3.94      18.57        4.36   399.24   0.730
  2                         12.16       0.00       0.00       3.02       2.89       1.65       4.55        1.82   245.52   0.374
  
  
  ****************************
  Subcatchment Washoff Summary
  ****************************
  
  ------------------------------------------------------------------------------------------
                                 COD            SS            TN            TP         NH4-N
  Subcatchment                    kg            kg            kg            kg            kg
  ------------------------------------------------------------------------------------------
  sub0                         2.176         4.147         0.037         0.003         0.018
  sub1                         9.268        18.138         0.173         0.012         0.083
  sub2                         5.563        10.570         0.119         0.008         0.054
  sub3                        13.747        25.918         0.288         0.019         0.132
  sub4                        21.530        42.606         0.429         0.026         0.205
  sub5                        21.300        41.103         0.378         0.029         0.183
  sub7                         4.748         9.424         0.090         0.006         0.043
  sub8                         7.142        14.500         0.143         0.008         0.069
  sub9                         6.100        12.212         0.118         0.007         0.057
  sub10                       17.532        34.266         0.321         0.023         0.155
  sub11                       17.086        33.770         0.320         0.022         0.154
  sub12                       14.392        27.890         0.260         0.019         0.125
  sub14                       13.021        25.823         0.247         0.016         0.119
  sub15                       16.182        30.744         0.313         0.023         0.146
  sub16                       10.318        19.555         0.197         0.015         0.092
  sub17                        9.471        17.789         0.175         0.014         0.082
  sub22                       48.821        90.813         0.932         0.070         0.434
  sub23                       29.138        56.181         0.627         0.041         0.287
  sub60                      203.703       376.194         4.083         0.248         1.956
  sub61                      251.300       461.579         4.699         0.320         2.261
  sub62                      262.762       491.326         5.157         0.324         2.474
  sub63                      185.047       334.594         3.739         0.261         1.731
  sub64                      253.867       452.095         4.687         0.339         2.235
  sub65                      260.106       465.192         4.834         0.344         2.309
  sub66                      146.558       263.078         3.037         0.197         1.417
  sub67                      388.205       718.566         6.963         0.510         3.363
  sub68                      276.714       513.393         5.318         0.356         2.539
  sub69                      247.676       464.012         4.658         0.325         2.225
  sub70                      413.256       778.342         8.287         0.572         3.877
  sub71                      173.740       327.842         3.597         0.206         1.720
  sub72                      136.329       239.316         2.558         0.174         1.230
  1                          280.724       531.718         5.751         0.398         2.660
  2                           35.485        61.812         1.030         0.062         0.437
  ------------------------------------------------------------------------------------------
  System                    3783.006      6994.507        73.566         4.996        34.873
  
  
  ******************
  Node Depth Summary
  ******************
  
  ---------------------------------------------------------------------------------
                                 Average  Maximum  Maximum  Time of Max    Reported
                                   Depth    Depth      HGL   Occurrence   Max Depth
  Node                 Type       Meters   Meters   Meters  days hr:min      Meters
  ---------------------------------------------------------------------------------
  WS02001211           JUNCTION     0.78     0.83     5.67     0  03:09        0.83
  WS02001212           JUNCTION     0.49     0.55     5.62     0  03:09        0.55
  WS02001213           JUNCTION     0.73     0.83     5.59     0  03:08        0.82
  WS02003069           JUNCTION     0.53     0.68     5.27     0  03:07        0.68
  WS02003072           JUNCTION     0.59     0.73     5.10     0  03:08        0.73
  WS02003073           JUNCTION     0.36     0.46     4.52     0  03:08        0.46
  WS02003060           JUNCTION     0.47     0.60     5.53     0  03:07        0.60
  WS02003066           JUNCTION     0.26     0.36     5.92     0  03:05        0.36
  WS02003059           JUNCTION     0.78     0.88     5.57     0  03:08        0.88
  WS02003067           JUNCTION     0.62     0.79     6.11     0  03:05        0.79
  WS02004401           JUNCTION     0.75     1.13     7.13     0  03:03        1.13
  WS02004402           JUNCTION     0.78     1.14     7.10     0  03:02        1.13
  WS02004403           JUNCTION     0.80     1.12     7.05     0  03:03        1.12
  WS02004404           JUNCTION     0.87     1.18     7.03     0  03:03        1.17
  WS02004406           JUNCTION     0.87     1.12     6.95     0  03:03        1.11
  WS02004409           JUNCTION     0.57     0.87     6.64     0  03:04        0.87
  WS02004410           JUNCTION     0.58     0.87     6.59     0  03:04        0.87
  WS02004411           JUNCTION     0.59     0.86     6.54     0  03:04        0.86
  WS02004412           JUNCTION     0.60     0.84     6.48     0  03:05        0.84
  WS02004413           JUNCTION     0.76     0.98     6.45     0  03:05        0.98
  WS02004405           JUNCTION     0.86     1.16     7.01     0  03:03        1.15
  WS02006109           JUNCTION     0.85     1.31     7.93     0  03:02        1.30
  WS02006110           JUNCTION     0.82     1.16     7.74     0  03:03        1.14
  WS02006111           JUNCTION     0.25     0.66     7.36     0  03:03        0.66
  WS02006112           JUNCTION     0.93     1.41     7.30     0  03:03        1.41
  WS02006113           JUNCTION     0.39     0.65     7.54     0  03:03        0.65
  WS02006115           JUNCTION     0.65     1.09     7.23     0  03:03        1.09
  WS02006116           JUNCTION     0.73     1.15     7.19     0  03:03        1.14
  WS02006230           JUNCTION     0.87     1.52     8.27     0  03:02        1.51
  WS02006231           JUNCTION     0.60     1.22     8.34     0  03:02        1.21
  WS02006232           JUNCTION     0.75     1.36     8.40     0  03:02        1.36
  WS02006234           JUNCTION     0.69     1.32     8.48     0  03:02        1.31
  WS02006235           JUNCTION     0.74     1.37     8.53     0  03:03        1.36
  WS02006238           JUNCTION     0.76     1.39     8.54     0  03:02        1.38
  WS02006240           JUNCTION     0.67     1.28     8.57     0  03:02        1.27
  WS02006242           JUNCTION     0.73     1.33     8.60     0  03:03        1.33
  WS02006243           JUNCTION     0.61     1.21     8.63     0  03:02        1.20
  WS02006245           JUNCTION     0.59     1.17     8.65     0  03:03        1.16
  WS02006247           JUNCTION     0.60     1.17     8.67     0  03:02        1.16
  WS02006248           JUNCTION     0.54     1.09     8.68     0  03:04        1.09
  WS02006249           JUNCTION     0.56     1.09     8.69     0  02:59        1.09
  WS02006239           JUNCTION     0.73     1.35     8.56     0  03:01        1.34
  WS02006251           JUNCTION     0.54     1.32     8.99     0  05:39        1.14
  WS02006252           JUNCTION     0.35     0.88     9.12     0  05:39        0.69
  WS02006253           JUNCTION     0.56     1.38     9.02     0  05:39        1.17
  WS02006256           JUNCTION     1.74     2.35     9.28     0  00:00        2.35
  WS02004138           JUNCTION     0.19     0.20     7.45     0  00:00        0.19
  WS02004139           JUNCTION     0.72     0.77     5.68     0  03:09        0.77
  WS02004407           JUNCTION     0.25     0.37     6.68     0  03:03        0.37
  WS02006228           JUNCTION     0.86     1.44     8.10     0  03:02        1.43
  WS02006229           JUNCTION     0.85     1.49     8.18     0  03:02        1.48
  WS02006280           JUNCTION     0.07     0.20     8.47     0  03:02        0.20
  WS02006284           JUNCTION     0.37     0.56     8.96     0  03:02        0.56
  WS02006287           JUNCTION     0.10     0.30     9.25     0  03:01        0.30
  WSF200               JUNCTION     0.25     0.40     5.64     0  03:05        0.40
  HS02004901           JUNCTION     0.13     0.29    10.12     0  03:01        0.29
  HS02004881           JUNCTION     0.01     0.04     9.07     0  03:01        0.04
  HS02004876           JUNCTION     0.04     0.12     9.15     0  03:01        0.12
  HS02004870           JUNCTION     0.02     0.07     9.35     0  03:01        0.07
  HS02004862           JUNCTION     0.02     0.08     9.46     0  03:01        0.08
  HS02004856           JUNCTION     0.08     0.13     9.55     0  03:01        0.13
  HS02004852           JUNCTION     0.01     0.05     9.56     0  03:01        0.05
  HS02004848           JUNCTION     0.01     0.05     9.65     0  03:01        0.05
  HS02004842           JUNCTION     0.34     0.38     9.65     0  03:01        0.38
  HS02004837           JUNCTION     0.03     0.07     9.65     0  03:01        0.07
  HS02004830           JUNCTION     0.04     0.08     9.55     0  03:01        0.08
  HS02004824           JUNCTION     0.02     0.06     9.47     0  03:01        0.06
  HS02004817           JUNCTION     0.44     0.61     9.45     0  03:01        0.61
  HS02004807           JUNCTION     0.13     0.28     9.45     0  03:01        0.28
  HS02004802           JUNCTION     0.16     0.31     9.44     0  03:01        0.31
  HS02004799           JUNCTION     0.12     0.35     9.56     0  03:01        0.35
  HS02004792           JUNCTION     0.03     0.15     9.67     0  03:01        0.15
  HS02004788           JUNCTION     0.03     0.11    10.01     0  03:01        0.11
  HS02004785           JUNCTION     0.05     0.18    10.09     0  03:01        0.18
  HS02004777           JUNCTION     0.15     0.31    10.11     0  03:01        0.31
  HS02004770           JUNCTION     0.12     0.29    10.12     0  03:01        0.29
  HS02004480           JUNCTION     0.08     0.28     9.52     0  03:01        0.28
  HS02004479           JUNCTION     0.12     0.32     9.52     0  03:01        0.32
  HS02004478           JUNCTION     0.06     0.20     9.42     0  03:01        0.20
  YS02001745           JUNCTION     0.72     0.92     8.44     0  03:01        0.92
  YS02001748           JUNCTION     1.12     1.55     8.63     0  02:27        1.35
  YS02001751           JUNCTION     1.31     1.56     8.44     0  02:57        1.55
  YS02001754           JUNCTION     1.56     1.83     8.44     0  02:58        1.81
  YS02001762           JUNCTION     1.76     2.04     8.44     0  02:57        2.02
  YS02001765           JUNCTION     1.72     1.99     8.44     0  02:58        1.97
  YS02001767           JUNCTION     1.68     1.94     8.43     0  02:56        1.93
  YS02001770           JUNCTION     1.67     1.92     8.42     0  02:58        1.91
  YS02001774           JUNCTION     1.74     1.98     8.40     0  03:00        1.97
  YS02001779           JUNCTION     1.49     1.68     8.37     0  02:36        1.68
  YS02001882           JUNCTION     0.54     1.62     8.33     0  02:59        1.61
  YS02001884           JUNCTION     0.64     1.72     8.34     0  03:00        1.71
  YS02001759           JUNCTION     1.80     2.08     8.44     0  02:58        2.06
  YS02001887           JUNCTION     0.72     1.80     8.34     0  03:00        1.79
  YS02001890           JUNCTION     0.75     1.81     8.32     0  02:44        1.80
  YS02001898           JUNCTION     0.51     1.56     8.29     0  02:58        1.55
  YS02001901           JUNCTION     0.63     1.67     8.28     0  02:58        1.67
  YS02001904           JUNCTION     0.61     1.64     8.27     0  03:00        1.63
  YS02001907           JUNCTION     0.94     1.96     8.25     0  02:44        1.96
  YS02001910           JUNCTION     0.73     1.78     8.29     0  02:46        1.77
  YS02001915           JUNCTION     0.53     1.59     8.31     0  02:45        1.57
  YS02001918           JUNCTION     0.27     1.26     8.33     0  02:45        1.23
  YS02001619           JUNCTION     1.27     1.58     8.51     0  02:27        1.47
  YS02001629           JUNCTION     1.63     1.85     8.40     0  02:27        1.84
  YS02001641           JUNCTION     1.73     1.95     8.39     0  06:32        1.93
  YS02001644           JUNCTION     1.73     1.92     8.35     0  02:35        1.92
  YS02001652           JUNCTION     1.57     2.07     8.67     0  03:43        1.99
  YS02001655           JUNCTION     1.34     2.04     8.89     0  03:55        1.85
  YS02001920           JUNCTION     0.37     1.34     8.35     0  02:45        1.30
  YS02001923           JUNCTION     0.21     1.10     8.36     0  02:45        1.06
  YS02001926           JUNCTION     0.27     0.91     8.36     0  02:45        0.91
  YS02001929           JUNCTION     0.15     0.69     8.38     0  02:46        0.66
  YS02001658           JUNCTION     1.06     1.98     9.12     0  03:55        1.61
  YS02001661           JUNCTION     0.83     1.93     9.33     0  03:41        1.42
  YS02001664           JUNCTION     0.36     0.57     8.50     0  03:21        0.56
  YS02001622           JUNCTION     1.29     1.56     8.46     0  02:27        1.49
  YS02001633           JUNCTION     1.72     1.97     8.43     0  06:32        1.94
  YS02001649           JUNCTION     1.77     2.05     8.44     0  02:37        2.05
  YS02001757           JUNCTION     1.90     2.17     8.44     0  02:57        2.16
  YS02001895           JUNCTION     0.51     1.56     8.31     0  02:59        1.55
  YS02001625           JUNCTION     1.58     1.78     8.38     0  02:27        1.78
  YS02163301           JUNCTION     1.66     1.90     8.42     0  06:32        1.88
  YS02163601           JUNCTION     1.77     2.02     8.42     0  06:32        1.98
  YS02164001           JUNCTION     1.71     1.95     8.41     0  06:32        1.91
  YS02001647           JUNCTION     1.56     1.80     8.41     0  03:46        1.79
  YSB1154              JUNCTION     0.26     0.47     9.52     0  03:01        0.47
  YSB6556              JUNCTION     0.15     0.35     9.52     0  03:01        0.35
  YSB1174              JUNCTION     0.21     0.41     9.52     0  03:01        0.41
  YSB1171              JUNCTION     0.41     0.62     9.52     0  03:01        0.62
  YS02006553           JUNCTION     0.94     1.97     8.25     0  02:59        1.96
  YS02006561           JUNCTION     0.30     1.08     7.74     0  02:44        1.07
  YS02006556           JUNCTION     0.91     1.92     8.23     0  02:59        1.91
  YS02006558           JUNCTION     0.95     1.96     8.23     0  02:58        1.96
  YS02001783           JUNCTION     0.52     1.47     7.61     0  02:44        1.46
  YS02001784           JUNCTION     0.54     1.56     7.63     0  02:34        1.40
  YS02001786           JUNCTION     0.48     1.77     7.80     0  02:34        1.25
  YS02001788           JUNCTION     0.41     1.52     7.49     0  02:34        1.12
  YS02001790           JUNCTION     0.54     1.96     7.60     0  06:23        1.29
  YS02001791           JUNCTION     0.50     2.72     8.19     0  04:36        1.26
  YS02001793           JUNCTION     0.70     3.27     8.10     0  04:34        1.80
  WSC                  OUTFALL      0.36     0.45     1.12     0  03:09        0.45
  JK-storage           STORAGE      2.93     5.80     6.60     0  02:34        5.80
  CC-storage           STORAGE      1.15     1.40     8.40     0  03:03        1.40
  XR-storage           STORAGE      6.55     7.72     5.72     0  02:59        7.72
  
  
  *******************
  Node Inflow Summary
  *******************
  
  -------------------------------------------------------------------------------------------------
                                  Maximum  Maximum                  Lateral       Total        Flow
                                  Lateral    Total  Time of Max      Inflow      Inflow     Balance
                                   Inflow   Inflow   Occurrence      Volume      Volume       Error
  Node                 Type           LPS      LPS  days hr:min    10^6 ltr    10^6 ltr     Percent
  -------------------------------------------------------------------------------------------------
  WS02001211           JUNCTION      7.35   390.32     0  03:25       0.207        10.2       0.398
  WS02001212           JUNCTION      0.00   393.13     0  03:25           0        10.2       0.239
  WS02001213           JUNCTION      0.00   395.72     0  03:25           0        10.1       0.281
  WS02003069           JUNCTION      0.32  1216.94     0  03:07     0.00902        20.7       0.165
  WS02003072           JUNCTION      0.00  1216.93     0  03:07           0        20.7       0.199
  WS02003073           JUNCTION      1.82  1218.93     0  03:08      0.0514        20.7       0.231
  WS02003060           JUNCTION     16.53  1216.60     0  03:07       0.466        20.7       0.154
  WS02003066           JUNCTION      0.00   828.24     0  03:05           0        10.2       0.042
  WS02003059           JUNCTION      0.00   399.22     0  03:24           0        10.1       0.393
  WS02003067           JUNCTION      0.00   827.87     0  03:05           0        10.2       0.088
  WS02004401           JUNCTION      0.00   831.75     0  03:03           0        10.4       0.187
  WS02004402           JUNCTION      0.00   833.23     0  03:03           0        10.4       0.179
  WS02004403           JUNCTION      0.00   831.70     0  03:03           0        10.4       0.164
  WS02004404           JUNCTION      0.16   832.52     0  03:03     0.00457        10.4       0.124
  WS02004406           JUNCTION      0.00   831.93     0  03:03           0        10.4       0.304
  WS02004409           JUNCTION      0.00   831.59     0  03:03           0        10.3       0.143
  WS02004410           JUNCTION      0.00   829.33     0  03:04           0        10.3       0.166
  WS02004411           JUNCTION      0.00   828.21     0  03:04           0        10.3       0.172
  WS02004412           JUNCTION      0.00   827.80     0  03:04           0        10.3       0.188
  WS02004413           JUNCTION      0.00   827.79     0  03:05           0        10.2       0.284
  WS02004405           JUNCTION      0.04   833.31     0  03:03     0.00107        10.4       0.190
  WS02006109           JUNCTION      1.23   819.10     0  03:02      0.0347        10.5       0.197
  WS02006110           JUNCTION      0.00   818.85     0  03:02           0        10.5       0.170
  WS02006111           JUNCTION      0.00   817.97     0  03:03           0        10.4       0.032
  WS02006112           JUNCTION     16.72   831.52     0  03:03      0.0747        10.5       0.243
  WS02006113           JUNCTION      0.00   818.90     0  03:02           0        10.4       0.079
  WS02006115           JUNCTION      0.00   831.59     0  03:03           0        10.5       0.172
  WS02006116           JUNCTION      0.00   831.85     0  03:03           0        10.5       0.168
  WS02006230           JUNCTION     10.28   532.52     0  06:55        0.29        8.31       0.161
  WS02006231           JUNCTION      0.00   522.24     0  06:50           0        8.03       0.080
  WS02006232           JUNCTION      0.00   522.42     0  06:52           0        8.04       0.187
  WS02006234           JUNCTION      0.00   522.55     0  06:52           0        8.05       0.074
  WS02006235           JUNCTION      0.00   523.82     0  06:50           0        8.09       0.111
  WS02006238           JUNCTION      0.00   418.29     0  05:50           0        4.69       0.121
  WS02006240           JUNCTION      0.00   416.84     0  05:50           0        4.67       0.215
  WS02006242           JUNCTION      0.00   416.57     0  05:50           0        4.67       0.273
  WS02006243           JUNCTION      0.00   416.35     0  05:50           0        4.67       0.127
  WS02006245           JUNCTION      0.00   416.16     0  05:50           0        4.68       0.199
  WS02006247           JUNCTION      0.00   416.47     0  05:50           0        4.68       0.137
  WS02006248           JUNCTION      0.00   417.19     0  05:50           0        4.69       0.094
  WS02006249           JUNCTION      0.00   447.13     0  03:10           0        5.03       0.177
  WS02006239           JUNCTION      0.00   417.89     0  05:50           0        4.68       0.154
  WS02006251           JUNCTION      0.08   446.80     0  03:10     0.00217        5.08       0.163
  WS02006252           JUNCTION      0.00   400.00     0  05:40           0        4.62       0.009
  WS02006253           JUNCTION      1.99    86.08     0  03:01     0.00928       0.458       0.752
  WS02006256           JUNCTION      0.00   983.00     0  00:00           0        9.87      -0.014
  WS02004138           JUNCTION      0.00   380.00     0  00:00           0          10       0.064
  WS02004139           JUNCTION      0.32   396.51     0  00:00     0.00905          10       0.452
  WS02004407           JUNCTION      0.00   832.06     0  03:03           0        10.3       0.063
  WS02006228           JUNCTION      0.00   817.79     0  03:02           0        10.5       0.146
  WS02006229           JUNCTION      0.00   818.85     0  03:02           0        10.5       0.113
  WS02006280           JUNCTION      0.00   413.65     0  03:02           0        2.17       0.007
  WS02006284           JUNCTION      0.10   413.60     0  03:02      0.0027        2.17       0.041
  WS02006287           JUNCTION      0.00   413.25     0  03:01           0        2.17       0.033
  WSF200               JUNCTION      0.00   828.36     0  03:05           0        10.2       0.039
  HS02004901           JUNCTION     20.36    20.36     0  03:01      0.0902      0.0904       1.990
  HS02004881           JUNCTION      7.95    84.19     0  03:01      0.0378        0.41       0.112
  HS02004876           JUNCTION     14.96    76.76     0  03:01      0.0728       0.373       0.148
  HS02004870           JUNCTION     14.89    62.16     0  03:01      0.0716         0.3       0.037
  HS02004862           JUNCTION     15.28    47.69     0  03:01      0.0788       0.229       0.077
  HS02004856           JUNCTION     11.18    32.73     0  03:01      0.0539       0.152       0.963
  HS02004852           JUNCTION      0.00    21.94     0  03:01           0      0.0979       0.059
  HS02004848           JUNCTION     34.61    34.61     0  03:01       0.174       0.174       0.028
  HS02004842           JUNCTION      0.00    12.41     0  03:01           0      0.0895      16.998
  HS02004837           JUNCTION     31.84    43.94     0  03:01       0.303        0.38       0.215
  HS02004830           JUNCTION      0.15    43.86     0  03:01     0.00423        0.37       0.334
  HS02004824           JUNCTION     42.39    85.90     0  03:01       0.225       0.594       0.091
  HS02004817           JUNCTION      0.60    86.29     0  03:01      0.0169        0.61       2.809
  HS02004807           JUNCTION     27.35   112.32     0  03:01       0.131       0.726       0.604
  HS02004802           JUNCTION      0.00   111.38     0  03:01           0       0.723       0.549
  HS02004799           JUNCTION     22.08   258.95     0  03:01       0.107        1.24       0.223
  HS02004792           JUNCTION    102.90   238.02     0  03:01        0.47        1.14       0.036
  HS02004788           JUNCTION     34.16   135.95     0  03:01       0.199       0.669       0.059
  HS02004785           JUNCTION      0.15   103.52     0  03:01     0.00423       0.471       0.106
  HS02004777           JUNCTION      0.03   104.16     0  03:01    0.000846       0.472       1.115
  HS02004770           JUNCTION     85.35   105.10     0  03:01       0.385       0.473       0.659
  HS02004480           JUNCTION      0.00   302.47     0  03:01           0        1.46       0.076
  HS02004479           JUNCTION      0.00    44.90     0  03:02           0       0.232       0.317
  HS02004478           JUNCTION      0.00   413.12     0  03:01           0        2.17       0.014
  YS02001745           JUNCTION    336.84   392.56     0  02:26        2.69         2.7       0.359
  YS02001748           JUNCTION      0.04   558.84     0  02:26     0.00127        2.69       0.811
  YS02001751           JUNCTION      0.01   354.99     0  02:17     0.00031        2.66       0.898
  YS02001754           JUNCTION      0.26   342.75     0  03:01     0.00733        2.64       0.948
  YS02001762           JUNCTION      0.00   292.98     0  02:38           0        1.99       1.079
  YS02001765           JUNCTION      0.00   293.33     0  02:38           0        1.99       1.234
  YS02001767           JUNCTION      0.54   293.52     0  02:38      0.0151        2.01       1.794
  YS02001770           JUNCTION    415.94   566.05     0  03:01        3.01        3.35       0.935
  YS02001774           JUNCTION      0.00   567.05     0  03:01           0        1.67       1.514
  YS02001779           JUNCTION      0.01   567.10     0  03:01    0.000141        1.64       0.938
  YS02001882           JUNCTION      0.00    40.41     0  02:36           0       0.018      15.114
  YS02001884           JUNCTION      0.00    73.71     0  02:36           0       0.055      12.695
  YS02001759           JUNCTION    399.49   574.90     0  02:38        2.78        4.39       0.521
  YS02001887           JUNCTION    494.68   494.99     0  03:01        3.19        3.22       0.266
  YS02001890           JUNCTION      0.00   495.27     0  03:00           0        3.18       0.296
  YS02001898           JUNCTION      0.00   494.50     0  03:00           0        3.16       0.099
  YS02001901           JUNCTION      0.00   494.49     0  03:01           0        3.16       0.224
  YS02001904           JUNCTION      0.00   495.12     0  03:01           0        3.16       0.208
  YS02001907           JUNCTION      0.00   942.53     0  03:00           0        7.02       0.350
  YS02001910           JUNCTION      0.00   451.54     0  03:00           0        3.87       0.306
  YS02001915           JUNCTION    296.36   450.78     0  03:00        2.25         3.9       0.159
  YS02001918           JUNCTION      0.00   211.96     0  02:46           0        1.66       0.119
  YS02001619           JUNCTION    290.53   290.53     0  03:01        2.24        2.24       0.547
  YS02001629           JUNCTION      0.00   205.17     0  02:17           0        1.69       1.731
  YS02001641           JUNCTION      0.00   398.71     0  02:34           0        4.25       0.497
  YS02001644           JUNCTION    321.01  1356.14     0  03:01        2.59        9.74       0.271
  YS02001652           JUNCTION      0.00   381.36     0  03:01           0        2.35       1.009
  YS02001655           JUNCTION      0.15   382.67     0  02:18     0.00434        2.38       1.046
  YS02001920           JUNCTION      2.87   211.33     0  02:46      0.0809        1.64       0.184
  YS02001923           JUNCTION      0.04   230.71     0  02:47     0.00106        1.56       0.050
  YS02001926           JUNCTION      0.05   185.58     0  02:46     0.00147        1.56       0.211
  YS02001929           JUNCTION    151.13   151.13     0  03:01        1.56        1.56       0.036
  YS02001658           JUNCTION      0.00   623.85     0  02:23           0        2.42       0.934
  YS02001661           JUNCTION      0.00   621.35     0  02:38           0        2.84      -0.483
  YS02001664           JUNCTION    361.21   361.21     0  03:01        2.38        2.82       0.185
  YS02001622           JUNCTION      0.00   291.07     0  03:01           0        2.22       1.447
  YS02001633           JUNCTION    326.74   397.61     0  02:35        2.66        4.31       0.749
  YS02001649           JUNCTION      0.00   827.37     0  02:35           0        5.97       0.623
  YS02001757           JUNCTION      0.00  1578.95     0  02:35           0        9.65       0.958
  YS02001895           JUNCTION      0.00   494.53     0  03:01           0        3.17       0.169
  YS02001625           JUNCTION      0.00   291.01     0  03:01           0        2.19       1.811
  YS02163301           JUNCTION      0.00   204.49     0  02:27           0        1.67       1.463
  YS02163601           JUNCTION      0.11   397.50     0  02:34      0.0031        4.27       0.709
  YS02164001           JUNCTION      0.00   398.54     0  02:34           0        4.25       0.471
  YS02001647           JUNCTION      0.00   656.45     0  03:01           0         5.1       0.557
  YSB1154              JUNCTION     26.18    26.18     0  03:01       0.129        0.13       1.130
  YSB6556              JUNCTION      0.00    25.83     0  03:01           0        0.13       0.969
  YSB1174              JUNCTION     20.52    20.52     0  03:01      0.0948      0.0953       1.368
  YSB1171              JUNCTION      0.00    45.31     0  03:01           0       0.231       2.821
  YS02006553           JUNCTION      0.00   704.06     0  03:31           0        6.56       0.238
  YS02006561           JUNCTION      0.00   982.41     0  03:00           0        9.44       0.010
  YS02006556           JUNCTION      0.00   704.09     0  03:31           0        6.57       0.177
  YS02006558           JUNCTION    433.40   983.50     0  02:59        2.93        9.47       0.054
  YS02001783           JUNCTION      0.00   982.48     0  02:59           0        9.44       0.025
  YS02001784           JUNCTION      1.06   983.44     0  03:00      0.0299        9.47       0.038
  YS02001786           JUNCTION      0.06   983.46     0  02:59     0.00159        9.47       0.037
  YS02001788           JUNCTION      0.07   983.56     0  02:59       0.002        9.47       0.022
  YS02001790           JUNCTION      0.15   984.03     0  02:59     0.00437        9.47       0.021
  YS02001791           JUNCTION      0.00   983.98     0  02:59           0        9.47       0.017
  YS02001793           JUNCTION      0.00   984.05     0  02:59           0        9.49      -0.004
  WSC                  OUTFALL       0.00  1219.32     0  03:09           0        20.6       0.000
  JK-storage           STORAGE       0.00  1135.95     0  02:04           0        9.64     -11.239
  CC-storage           STORAGE       0.00  1579.36     0  02:35           0        8.05       0.761
  XR-storage           STORAGE     844.76   844.76     0  03:01        11.8        12.4      -0.004
  
  
  **********************
  Node Surcharge Summary
  **********************
  
  Surcharging occurs when water rises above the top of the highest conduit.
  ---------------------------------------------------------------------
                                               Max. Height   Min. Depth
                                   Hours       Above Crown    Below Rim
  Node                 Type      Surcharged         Meters       Meters
  ---------------------------------------------------------------------
  WS02004401           JUNCTION        0.30          0.134        1.526
  WS02004402           JUNCTION        0.33          0.139        1.601
  WS02004403           JUNCTION        0.34          0.122        1.908
  WS02004404           JUNCTION        0.49          0.178        2.602
  WS02004406           JUNCTION        0.43          0.116        2.334
  WS02004405           JUNCTION        0.46          0.158        2.642
  WS02006109           JUNCTION        4.36          0.493        1.327
  WS02006110           JUNCTION        2.13          0.245        1.605
  WS02006112           JUNCTION        2.89          0.415        1.265
  WS02006115           JUNCTION        0.16          0.080        2.170
  WS02006116           JUNCTION        0.19          0.086        2.204
  WS02006230           JUNCTION        1.58          0.441        1.129
  WS02006231           JUNCTION        2.00          0.508        1.022
  WS02006232           JUNCTION        4.07          0.662        0.818
  WS02006234           JUNCTION        2.90          0.599        0.641
  WS02006235           JUNCTION        3.55          0.658        0.632
  WS02006238           JUNCTION        3.67          0.672        0.758
  WS02006240           JUNCTION        2.93          0.569        0.821
  WS02006242           JUNCTION        3.05          0.604        0.216
  WS02006243           JUNCTION        2.59          0.498        0.272
  WS02006245           JUNCTION        2.40          0.459        0.391
  WS02006247           JUNCTION        2.41          0.459        0.301
  WS02006248           JUNCTION        2.13          0.374        0.006
  WS02006249           JUNCTION        2.19          0.390        0.000
  WS02006239           JUNCTION        3.05          0.608        0.682
  WS02006251           JUNCTION        1.25          0.290        0.890
  WS02006252           JUNCTION        2.75          0.479        0.621
  WS02006253           JUNCTION        1.29          0.339        2.141
  WS02006256           JUNCTION        6.71          2.050        0.000
  WS02006228           JUNCTION        4.32          0.615        1.585
  YS02001748           JUNCTION        5.31          0.471        0.719
  YS02001751           JUNCTION        5.48          0.560        0.640
  YS02001754           JUNCTION        5.69          0.784        0.366
  YS02001762           JUNCTION        5.87          1.039        0.111
  YS02001765           JUNCTION        5.84          0.986        0.114
  YS02001767           JUNCTION        5.81          0.938        0.092
  YS02001770           JUNCTION        5.80          0.894        0.026
  YS02001774           JUNCTION        5.86          0.981        0.069
  YS02001779           JUNCTION        5.68          0.680        0.000
  YS02001882           JUNCTION        0.90          0.616        0.214
  YS02001884           JUNCTION        0.93          0.659        0.211
  YS02001759           JUNCTION        5.89          1.076        0.134
  YS02001887           JUNCTION        0.99          0.747        0.203
  YS02001890           JUNCTION        1.02          0.760        0.000
  YS02001898           JUNCTION        0.86          0.529        0.211
  YS02001901           JUNCTION        0.96          0.673        0.197
  YS02001904           JUNCTION        0.94          0.637        0.213
  YS02001907           JUNCTION        1.75          0.950        0.000
  YS02001910           JUNCTION        1.06          0.778        0.322
  YS02001915           JUNCTION        0.89          0.587        0.413
  YS02001918           JUNCTION        0.71          0.261        0.549
  YS02001619           JUNCTION        5.47          0.578        0.032
  YS02001629           JUNCTION        5.48          0.470        0.000
  YS02001641           JUNCTION        5.85          0.953        0.147
  YS02001644           JUNCTION        5.85          0.920        0.000
  YS02001652           JUNCTION        5.73          1.040        0.090
  YS02001655           JUNCTION        5.50          1.044        0.156
  YS02001920           JUNCTION        0.73          0.340        0.800
  YS02001658           JUNCTION        5.34          0.981        0.319
  YS02001661           JUNCTION        0.23          0.861        0.529
  YS02001622           JUNCTION        5.51          0.556        0.064
  YS02001633           JUNCTION        5.83          0.952        0.108
  YS02001649           JUNCTION        5.87          1.050        0.000
  YS02001757           JUNCTION        5.98          1.175        0.035
  YS02001895           JUNCTION        0.87          0.564        0.186
  YS02001625           JUNCTION        5.76          0.780        0.000
  YS02163301           JUNCTION        5.81          0.901        0.129
  YS02163601           JUNCTION        5.87          1.022        0.058
  YS02164001           JUNCTION        5.84          0.954        0.146
  YS02001647           JUNCTION        5.75          0.800        0.100
  YS02006553           JUNCTION        1.86          0.965        0.225
  YS02006561           JUNCTION        0.77          0.281        0.869
  YS02006556           JUNCTION        1.30          0.882        0.468
  YS02006558           JUNCTION        1.26          0.861        0.539
  YS02001783           JUNCTION        1.04          0.668        0.932
  YS02001784           JUNCTION        1.02          0.760        0.730
  YS02001786           JUNCTION        0.96          0.967        0.463
  YS02001788           JUNCTION        0.91          0.716        0.764
  YS02001790           JUNCTION        1.71          1.157        0.000
  YS02001791           JUNCTION        1.82          1.920        0.000
  YS02001793           JUNCTION        2.09          2.267        0.333
  
  
  *********************
  Node Flooding Summary
  *********************
  
  Flooding refers to all water that overflows a node, whether it ponds or not.
  --------------------------------------------------------------------------
                                                             Total   Maximum
                                 Maximum   Time of Max       Flood    Ponded
                        Hours       Rate    Occurrence      Volume     Depth
  Node                 Flooded       LPS   days hr:min    10^6 ltr    Meters
  --------------------------------------------------------------------------
  WS02006249              1.21    185.32      0  03:10       0.333     0.000
  WS02006256              3.90    978.40      0  00:00       6.437     0.000
  YS02001779              2.65    566.89      0  03:01       1.615     0.000
  YS02001890              0.01      0.93      0  03:00       0.000     0.000
  YS02001907              0.58    393.02      0  03:01       0.442     0.000
  YS02001629              0.01      9.87      0  02:27       0.000     0.000
  YS02001644              3.23   1355.54      0  03:01       7.528     0.000
  YS02001649              0.05     23.76      0  03:43       0.002     0.000
  YS02001625              1.22    237.05      0  03:01       0.465     0.000
  YS02001790              0.01    134.44      0  06:23       0.000     0.000
  YS02001791              0.01    269.61      0  04:36       0.000     0.000
  JK-storage              0.77    815.40      0  02:40       0.914     0.000
  XR-storage              2.98    464.76      0  03:01       1.761     0.000
  
  
  **********************
  Storage Volume Summary
  **********************
  
  --------------------------------------------------------------------------------------------------
                         Average     Avg  Evap Exfil       Maximum     Max    Time of Max    Maximum
                          Volume    Pcnt  Pcnt  Pcnt        Volume    Pcnt     Occurrence    Outflow
  Storage Unit           1000 m3    Full  Loss  Loss       1000 m3    Full    days hr:min        LPS
  --------------------------------------------------------------------------------------------------
  JK-storage               0.147      51     0     0         0.291     100       0  02:34     983.00
  CC-storage               3.206      20     0     0         3.905      25       0  03:03     400.00
  XR-storage               0.786      85     0     0         0.926     100       0  02:59     380.00
  
  
  ***********************
  Outfall Loading Summary
  ***********************
  
  ---------------------------------------------------------------------------------------------------------------------------------
                         Flow       Avg       Max       Total         Total         Total         Total         Total         Total
                         Freq      Flow      Flow      Volume           COD            SS            TN            TP         NH4-N
  Outfall Node           Pcnt       LPS       LPS    10^6 ltr            kg            kg            kg            kg            kg
  ---------------------------------------------------------------------------------------------------------------------------------
  WSC                   99.98    819.51   1219.32      20.640      2402.797      4108.020       153.886        18.095        93.120
  ---------------------------------------------------------------------------------------------------------------------------------
  System                99.98    819.51   1219.32      20.640      2402.797      4108.020       153.886        18.095        93.120
  
  
  ********************
  Link Flow Summary
  ********************
  
  -----------------------------------------------------------------------------
                                 Maximum  Time of Max   Maximum    Max/    Max/
                                  |Flow|   Occurrence   |Veloc|    Full    Full
  Link                 Type          LPS  days hr:min     m/sec    Flow   Depth
  -----------------------------------------------------------------------------
  WS02003066WSF200     CONDUIT    828.36     0  03:05      2.94    0.14    0.30
  WS02006287WS02006284 CONDUIT    413.50     0  03:02      2.04    0.19    0.30
  WS02006284WS02006280 CONDUIT    413.65     0  03:02      2.28    0.17    0.28
  WS02006280WS02006229 CONDUIT    413.65     0  03:02      3.63    0.09    0.25
  WS02006229WS02006228 CONDUIT    817.79     0  03:02      1.63    2.71    1.00
  WS02006256WS02006235 CONDUIT    288.60     0  00:00      4.23    3.05    1.00
  WS02006253WS02006251 CONDUIT    110.77     0  02:59      0.60    0.33    1.00
  WS02006252WS02006251 CONDUIT    401.16     0  05:56      3.19    1.47    1.00
  WS02006251WS02006249 CONDUIT    447.13     0  03:10      1.16    1.29    1.00
  WS02006249WS02006248 CONDUIT    417.19     0  05:50      1.13    2.29    1.00
  WS02006248WS02006247 CONDUIT    416.47     0  05:50      1.10    0.91    1.00
  WS02006247WS02006245 CONDUIT    416.16     0  05:50      1.08    3.30    1.00
  WS02006245WS02006243 CONDUIT    416.35     0  05:50      1.08    1.23    1.00
  WS02006243WS02006242 CONDUIT    416.57     0  05:50      1.08    0.89    1.00
  WS02006242WS02006240 CONDUIT    416.84     0  05:50      1.08    1.66    1.00
  WS02006240WS02006239 CONDUIT    417.89     0  05:50      1.09    1.32    1.00
  WS02006239WS02006238 CONDUIT    418.29     0  05:50      1.09    1.34    1.00
  WS02006238WS02006235 CONDUIT    419.26     0  05:50      1.46    0.94    1.00
  WS02006235WS02006234 CONDUIT    522.55     0  06:52      1.36    5.51    1.00
  WS02006234WS02006232 CONDUIT    522.42     0  06:52      1.39    1.06    1.00
  WS02006232WS02006231 CONDUIT    522.24     0  06:50      1.36    1.09    1.00
  WS02006231WS02006230 CONDUIT    522.24     0  06:55      1.36    7.92    1.00
  WS02006230WS02006229 CONDUIT    532.57     0  05:40      1.38   11.85    1.00
  WS02006228WS02006109 CONDUIT    817.87     0  03:02      1.63    3.57    1.00
  WS02006116WS02004401 CONDUIT    831.75     0  03:03      1.06    1.15    1.00
  WS02006115WS02006116 CONDUIT    831.85     0  03:03      1.06    1.07    1.00
  WS02006113WS02006111 CONDUIT    817.97     0  03:03      2.58    0.98    0.81
  WS02006112WS02006115 CONDUIT    831.59     0  03:03      1.06    0.49    1.00
  WS02006111WS02006112 CONDUIT    819.12     0  03:03      1.73    0.39    0.90
  WS02006110WS02006113 CONDUIT    818.90     0  03:02      1.74    0.75    0.91
  WS02006109WS02006110 CONDUIT    818.85     0  03:02      1.63    1.57    1.00
  WS02004411WS02004412 CONDUIT    827.80     0  03:04      1.16    1.18    0.85
  WS02004401WS02004402 CONDUIT    833.23     0  03:03      1.06    1.00    1.00
  WS02004413WS02003067 CONDUIT    827.87     0  03:05      1.42    0.35    0.70
  WS02004412WS02004413 CONDUIT    827.79     0  03:05      1.10    0.55    0.91
  WS02004410WS02004411 CONDUIT    828.21     0  03:04      1.15    1.13    0.86
  WS02004409WS02004410 CONDUIT    829.33     0  03:04      1.15    1.07    0.87
  WS02004407WS02004409 CONDUIT    831.59     0  03:03      1.64    0.29    0.62
  WS02004406WS02004407 CONDUIT    832.06     0  03:03      1.45    0.37    0.69
  WS02004405WS02004406 CONDUIT    831.93     0  03:03      1.06    1.64    1.00
  WS02004404WS02004405 CONDUIT    833.27     0  03:03      1.06    8.16    1.00
  WS02004403WS02004404 CONDUIT    832.36     0  03:03      1.06    0.60    1.00
  WS02004402WS02004403 CONDUIT    831.70     0  03:03      1.06    1.19    1.00
  WS02004139WS02001211 CONDUIT    382.97     0  03:25      0.90    0.48    0.63
  WS02004138WS02004139 CONDUIT    396.19     0  00:00      3.65    0.08    0.46
  WS02003067WS02003066 CONDUIT    828.24     0  03:05      1.54    0.27    0.48
  WS02001213WS02003059 CONDUIT    399.22     0  03:24      0.88    0.66    0.84
  WS02001212WS02001213 CONDUIT    395.72     0  03:25      1.32    0.61    0.53
  WS02001211WS02001212 CONDUIT    393.13     0  03:25      0.78    0.30    0.69
  WS02003072WS02003073 CONDUIT   1217.10     0  03:08      1.90    2.63    0.55
  WS02003069WS02003072 CONDUIT   1216.93     0  03:07      1.76    0.59    0.59
  WS02003060WS02003069 CONDUIT   1216.62     0  03:07      1.98    0.48    0.53
  WS02003059WS02003060 CONDUIT    403.99     0  03:24      0.95    0.26    0.74
  HS02004901HS02004770 CONDUIT     20.53     0  03:01      0.07    0.08    0.42
  HS02004876HS02004881 CONDUIT     76.55     0  03:01      0.95    0.81    0.12
  HS02004870HS02004876 CONDUIT     61.91     0  03:01      0.65    0.04    0.14
  HS02004842HS02004848 CONDUIT     12.41     0  03:01      0.06    0.01    0.31
  HS02004837HS02004842 CONDUIT     12.98     0  03:02      0.42    0.01    0.32
  HS02004830HS02004837 CONDUIT     43.71     0  03:01      0.57    0.04    0.11
  HS02004824HS02004830 CONDUIT     43.67     0  03:01      0.59    0.06    0.11
  HS02004817HS02004824 CONDUIT     85.69     0  03:01      0.26    0.04    0.48
  HS02004770HS02004777 CONDUIT    104.13     0  03:01      0.35    0.19    0.43
  HS02004799HS02004480 CONDUIT    258.32     0  03:01      0.83    0.33    0.44
  HS02004792HS02004799 CONDUIT    237.07     0  03:01      0.95    0.15    0.36
  HS02004788HS02004792 CONDUIT    135.44     0  03:01      1.06    0.09    0.18
  HS02004785HS02004788 CONDUIT    103.22     0  03:02      0.71    0.78    0.21
  HS02004777HS02004785 CONDUIT    103.37     0  03:01      0.42    0.13    0.35
  HS02004480HS02004478 CONDUIT    302.31     0  03:01      1.26    1.27    0.34
  HS02004479HS02004480 CONDUIT     46.29     0  03:02      0.32    0.04    0.43
  HS02004862HS02004870 CONDUIT     47.43     0  03:01      0.66    0.05    0.10
  HS02004848HS02004852 CONDUIT     21.94     0  03:01      0.45    0.02    0.07
  HS02004856HS02004862 CONDUIT     32.48     0  03:01      0.48    0.03    0.10
  HS02004852HS02004856 CONDUIT     21.86     0  03:02      0.25    0.02    0.13
  HS02004802HS02004478 CONDUIT    111.53     0  03:02      0.45    0.10    0.36
  HS02004478WS02006287 CONDUIT    413.25     0  03:01      1.75    0.12    0.26
  HS02004817HS02004807 CONDUIT     86.14     0  03:01      0.19    0.05    0.63
  HS02004807HS02004802 CONDUIT    111.38     0  03:01      0.38    0.21    0.42
  YS02001759YS02001757 CONDUIT    575.26     0  02:38      0.73    0.41    1.00
  YS02001762YS02001759 CONDUIT    292.32     0  02:38      0.37    0.34    1.00
  YS02001765YS02001762 CONDUIT    292.98     0  02:38      0.37    0.27    1.00
  YS02001770YS02001767 CONDUIT    292.99     0  02:38      0.37    1.16    1.00
  YS02001774YS02001770 CONDUIT    567.05     0  03:01      0.72    0.36    1.00
  YS02001779YS02001774 CONDUIT    567.09     0  03:01      0.72    0.29    1.00
  YS02001649YS02001757 CONDUIT    826.12     0  02:35      1.05    0.50    1.00
  YS02001767YS02001765 CONDUIT    293.33     0  02:38      0.37    0.37    1.00
  YS02006561YS02001783 CONDUIT    982.48     0  02:59      2.15    0.51    1.00
  YS02001783YS02001784 CONDUIT    982.38     0  03:00      1.95    1.35    1.00
  YS02001784YS02001785 CONDUIT    983.41     0  02:59      1.96    2.29    1.00
  YS02001788YS02001790 CONDUIT    983.87     0  02:59      2.44    0.73    1.00
  YS02001790YS02001791 CONDUIT    983.98     0  02:59      2.91    1.07    1.00
  YS02001791YS02001793 CONDUIT    984.05     0  02:59      5.75    0.42    1.00
  YS02001910YS02001907 CONDUIT    451.09     0  03:00      0.57    0.25    1.00
  YS02001786YS02001788 CONDUIT    983.49     0  02:59      2.31    1.89    1.00
  YS02001915YS02001910 CONDUIT    451.54     0  03:00      0.59    0.22    1.00
  YS02001918YS02001915 CONDUIT    245.69     0  03:31      0.44    0.14    1.00
  YS02001923YS02001920 CONDUIT    208.46     0  02:46      0.72    0.09    1.00
  YS02001926YS02001923 CONDUIT    230.67     0  02:47      0.83    0.33    0.89
  YS02001929YS02001926 CONDUIT    185.53     0  02:46      0.89    0.09    0.79
  YS02001920YS02001918 CONDUIT    211.96     0  02:46      0.70    0.21    1.00
  YS02001629YS02163301 CONDUIT    204.49     0  02:27      0.26    0.25    1.00
  YS02001619YS02001622 CONDUIT    291.07     0  03:01      0.61    0.43    1.00
  YS02001622YS02001625 CONDUIT    291.01     0  03:01      0.37    0.16    1.00
  YS02001625YS02001629 CONDUIT    205.17     0  02:17      0.26    0.10    1.00
  YS02163301YS02001633 CONDUIT    206.45     0  02:27      0.26    0.19    1.00
  YS02163601YS02164001 CONDUIT    398.54     0  02:34      0.51    0.35    1.00
  YS02164001YS02001641 CONDUIT    398.71     0  02:34      0.51    0.54    1.00
  YS02001641YS02001644 CONDUIT    399.07     0  02:34      0.51    1.29    1.00
  YS02001647YS02001649 CONDUIT    656.45     0  03:01      0.84    0.35    1.00
  YS02006553YS02006556 CONDUIT    704.09     0  03:31      0.90    0.60    1.00
  YS02006556YS02006558 CONDUIT    704.35     0  03:31      0.90    0.56    1.00
  YSB6556YSB1171       CONDUIT     25.75     0  03:03      0.09    0.03    0.70
  YS02001907YS02006553 CONDUIT    704.06     0  03:31      0.78    0.83    1.00
  YS02006558YS02006561 CONDUIT    982.41     0  03:00      3.47    2.17    1.00
  YS02001633YS02163601 CONDUIT    397.39     0  02:34      0.51    0.42    1.00
  YS02001644YS02001647 CONDUIT    657.59     0  03:01      0.84    0.39    1.00
  YS02001745YS02001748 CONDUIT    558.79     0  02:26      1.47    0.22    0.96
  YS02001748YS02001751 CONDUIT    354.98     0  02:17      1.06    0.18    1.00
  YS02001751YS02001754 CONDUIT    342.49     0  03:01      0.92    0.17    1.00
  YS02001754YS02001757 CONDUIT    343.13     0  03:01      0.44    0.14    1.00
  YS02001882YS02001884 CONDUIT     40.41     0  02:36      0.13    0.05    1.00
  YS02001884YS02001887 CONDUIT     73.71     0  02:36      0.09    0.10    1.00
  YS02001890YS02001895 CONDUIT    494.53     0  03:01      0.63    0.23    1.00
  YS02001895YS02001898 CONDUIT    494.50     0  03:00      0.63    0.86    1.00
  YS02001898YS02001901 CONDUIT    494.49     0  03:01      0.63    0.32    1.00
  YS02001901YS02001904 CONDUIT    495.12     0  03:01      0.63    0.77    1.00
  YS02001904YS02001907 CONDUIT    495.09     0  03:01      0.63    0.17    1.00
  YS02001887YS02001890 CONDUIT    495.27     0  03:00      0.63    0.85    1.00
  YS02001652YS02001649 CONDUIT    381.45     0  03:00      0.63    0.19    1.00
  YS02001655YS02001652 CONDUIT    381.36     0  03:01      0.98    0.19    1.00
  YS02001658YS02001655 CONDUIT    382.51     0  02:18      1.22    0.16    1.00
  YS02001661YS02001658 CONDUIT    623.85     0  02:23      1.55    0.24    1.00
  YS02001664YS02001661 CONDUIT    621.35     0  02:38      1.43    0.19    0.77
  YSB1154YSB6556       CONDUIT     25.83     0  03:01      0.17    0.05    0.59
  YSB1174YSB1171       CONDUIT     20.15     0  03:01      0.07    0.03    0.70
  YSB1171HS02004479    CONDUIT     44.90     0  03:02      0.54    0.03    0.55
  HS02004881HS02006253 CONDUIT     84.17     0  03:01      2.15    0.02    0.53
  YS02001793JiankangQianchi CONDUIT   1135.95     0  02:04     17.53    0.09    1.00
  YS02001757CaochengTiaoxuchi CONDUIT   1579.36     0  02:35      2.02    0.69    1.00
  WSF200WS02003060     CONDUIT    828.72     0  03:05      1.85    0.18    0.42
  1                    CONDUIT   1219.32     0  03:09      3.51    0.42    0.46
  CC-Pump-1            PUMP       200.00     0  03:00              1.00
  CC-Pump-2            PUMP       200.00     0  05:40              1.00
  JK-Pump-1            PUMP       300.00     0  00:00              1.00
  JK-Pump-2            PUMP       683.00     0  00:00              1.00
  XR-Pump-1            PUMP        95.00     0  00:00              1.00
  XR-Pump-2            PUMP        95.00     0  00:00              1.00
  XR-Pump-3            PUMP        95.00     0  00:00              1.00
  XR-Pump-4            PUMP        95.00     0  00:00              1.00
  
  
  ***************************
  Flow Classification Summary
  ***************************
  
  -------------------------------------------------------------------------------------
                      Adjusted    ---------- Fraction of Time in Flow Class ---------- 
                       /Actual         Up    Down  Sub   Sup   Up    Down  Norm  Inlet 
  Conduit               Length    Dry  Dry   Dry   Crit  Crit  Crit  Crit  Ltd   Ctrl  
  -------------------------------------------------------------------------------------
  WS02003066WSF200        1.00   0.02  0.05  0.00  0.00  0.93  0.00  0.00  0.41  0.00
  WS02006287WS02006284    1.00   0.03  0.01  0.00  0.62  0.34  0.00  0.00  0.62  0.00
  WS02006284WS02006280    1.00   0.03  0.00  0.00  0.00  0.00  0.00  0.97  0.00  0.00
  WS02006280WS02006229    1.00   0.03  0.00  0.00  0.00  0.01  0.00  0.95  0.02  0.00
  WS02006229WS02006228    1.00   0.00  0.00  0.00  1.00  0.00  0.00  0.00  0.00  0.00
  WS02006256WS02006235    1.00   0.00  0.00  0.00  1.00  0.00  0.00  0.00  0.00  0.00
  WS02006253WS02006251    1.00   0.01  0.02  0.00  0.97  0.00  0.01  0.00  0.00  0.00
  WS02006252WS02006251    1.00   0.17  0.00  0.00  0.12  0.00  0.71  0.00  0.00  0.00
  WS02006251WS02006249    1.00   0.00  0.00  0.00  1.00  0.00  0.00  0.00  0.21  0.00
  WS02006249WS02006248    1.00   0.00  0.01  0.00  0.92  0.00  0.07  0.00  0.00  0.00
  WS02006248WS02006247    1.00   0.01  0.00  0.00  0.98  0.00  0.00  0.01  0.12  0.00
  WS02006247WS02006245    1.00   0.01  0.00  0.00  0.97  0.00  0.00  0.02  0.00  0.00
  WS02006245WS02006243    1.00   0.00  0.00  0.00  0.96  0.00  0.00  0.04  0.02  0.00
  WS02006243WS02006242    1.00   0.00  0.00  0.00  1.00  0.00  0.00  0.00  0.22  0.00
  WS02006242WS02006240    1.00   0.00  0.00  0.00  1.00  0.00  0.00  0.00  0.00  0.00
  WS02006240WS02006239    1.00   0.00  0.00  0.00  0.95  0.00  0.00  0.05  0.01  0.00
  WS02006239WS02006238    1.00   0.00  0.00  0.00  1.00  0.00  0.00  0.00  0.14  0.00
  WS02006238WS02006235    1.00   0.00  0.00  0.00  1.00  0.00  0.00  0.00  0.00  0.00
  WS02006235WS02006234    1.00   0.00  0.00  0.00  0.96  0.00  0.04  0.00  0.00  0.00
  WS02006234WS02006232    1.00   0.00  0.00  0.00  1.00  0.00  0.00  0.00  0.10  0.00
  WS02006232WS02006231    1.00   0.00  0.00  0.00  1.00  0.00  0.00  0.00  0.00  0.00
  WS02006231WS02006230    1.00   0.00  0.00  0.00  0.81  0.00  0.19  0.00  0.00  0.00
  WS02006230WS02006229    1.00   0.00  0.00  0.00  1.00  0.00  0.00  0.00  0.01  0.00
  WS02006228WS02006109    1.00   0.00  0.00  0.00  1.00  0.00  0.00  0.00  0.00  0.00
  WS02006116WS02004401    1.00   0.01  0.00  0.00  0.99  0.00  0.00  0.00  0.01  0.00
  WS02006115WS02006116    1.00   0.01  0.00  0.00  0.97  0.00  0.00  0.02  0.01  0.00
  WS02006113WS02006111    1.00   0.01  0.00  0.00  0.02  0.98  0.00  0.00  0.15  0.00
  WS02006112WS02006115    1.00   0.01  0.00  0.00  0.99  0.00  0.00  0.00  0.00  0.00
  WS02006111WS02006112    1.00   0.01  0.00  0.00  0.99  0.00  0.00  0.00  0.92  0.00
  WS02006110WS02006113    1.00   0.00  0.00  0.00  0.99  0.00  0.00  0.00  0.00  0.00
  WS02006109WS02006110    1.00   0.00  0.00  0.00  1.00  0.00  0.00  0.00  0.00  0.00
  WS02004411WS02004412    1.00   0.05  0.00  0.00  0.95  0.00  0.00  0.00  0.00  0.00
  WS02004401WS02004402    1.00   0.01  0.00  0.00  0.99  0.00  0.00  0.00  0.01  0.00
  WS02004413WS02003067    1.00   0.05  0.01  0.00  0.00  0.00  0.94  0.00  0.00  0.00
  WS02004412WS02004413    1.00   0.05  0.00  0.00  0.95  0.00  0.00  0.00  0.00  0.00
  WS02004410WS02004411    1.00   0.05  0.00  0.00  0.95  0.00  0.00  0.00  0.00  0.00
  WS02004409WS02004410    1.00   0.05  0.00  0.00  0.95  0.00  0.00  0.00  0.00  0.00
  WS02004407WS02004409    1.00   0.05  0.00  0.00  0.95  0.01  0.00  0.00  0.81  0.00
  WS02004406WS02004407    1.00   0.00  0.05  0.00  0.95  0.00  0.00  0.00  0.00  0.00
  WS02004405WS02004406    1.00   0.00  0.00  0.00  1.00  0.00  0.00  0.00  0.02  0.00
  WS02004404WS02004405    1.00   0.00  0.00  0.00  1.00  0.00  0.00  0.00  0.00  0.00
  WS02004403WS02004404    1.00   0.00  0.01  0.00  0.99  0.00  0.00  0.00  0.02  0.00
  WS02004402WS02004403    1.00   0.01  0.00  0.00  0.99  0.00  0.00  0.00  0.00  0.00
  WS02004139WS02001211    1.00   0.00  0.00  0.00  1.00  0.00  0.00  0.00  0.00  0.00
  WS02004138WS02004139    1.00   0.00  0.00  0.00  1.00  0.00  0.00  0.00  1.00  0.00
  WS02003067WS02003066    1.00   0.06  0.00  0.00  0.93  0.00  0.00  0.00  0.00  0.00
  WS02001213WS02003059    1.00   0.00  0.00  0.00  1.00  0.00  0.00  0.00  0.00  0.00
  WS02001212WS02001213    1.00   0.00  0.00  0.00  0.93  0.00  0.07  0.00  0.00  0.00
  WS02001211WS02001212    1.00   0.00  0.00  0.00  1.00  0.00  0.00  0.00  0.00  0.00
  WS02003072WS02003073    1.00   0.00  0.00  0.00  0.00  0.00  0.00  1.00  0.00  0.00
  WS02003069WS02003072    1.00   0.00  0.00  0.00  1.00  0.00  0.00  0.00  0.11  0.00
  WS02003060WS02003069    1.00   0.00  0.00  0.00  0.99  0.01  0.00  0.00  0.09  0.00
  WS02003059WS02003060    1.00   0.00  0.00  0.00  1.00  0.00  0.00  0.00  0.00  0.00
  HS02004901HS02004770    1.00   0.03  0.00  0.00  0.97  0.00  0.00  0.00  0.00  0.00
  HS02004876HS02004881    1.00   0.01  0.00  0.00  0.93  0.06  0.00  0.00  0.00  0.00
  HS02004870HS02004876    1.00   0.00  0.00  0.00  1.00  0.00  0.00  0.00  0.95  0.00
  HS02004842HS02004848    1.00   0.00  0.03  0.00  0.97  0.00  0.00  0.00  0.55  0.00
  HS02004837HS02004842    1.00   0.00  0.00  0.00  1.00  0.00  0.00  0.00  0.11  0.00
  HS02004830HS02004837    1.00   0.00  0.00  0.00  1.00  0.00  0.00  0.00  0.99  0.00
  HS02004824HS02004830    1.00   0.00  0.00  0.00  1.00  0.00  0.00  0.00  0.00  0.00
  HS02004817HS02004824    1.00   0.00  0.00  0.00  1.00  0.00  0.00  0.00  1.00  0.00
  HS02004770HS02004777    1.00   0.00  0.03  0.00  0.97  0.00  0.00  0.00  0.02  0.00
  HS02004799HS02004480    1.00   0.00  0.01  0.00  0.96  0.00  0.03  0.00  0.00  0.00
  HS02004792HS02004799    1.00   0.00  0.00  0.00  1.00  0.00  0.00  0.00  0.98  0.00
  HS02004788HS02004792    1.00   0.00  0.00  0.00  1.00  0.00  0.00  0.00  0.98  0.00
  HS02004785HS02004788    1.00   0.00  0.00  0.00  1.00  0.00  0.00  0.00  0.00  0.00
  HS02004777HS02004785    1.00   0.00  0.00  0.00  1.00  0.00  0.00  0.00  0.12  0.00
  HS02004480HS02004478    1.00   0.03  0.00  0.00  0.71  0.00  0.00  0.26  0.00  0.00
  HS02004479HS02004480    1.00   0.01  0.00  0.00  0.99  0.00  0.00  0.00  0.11  0.00
  HS02004862HS02004870    1.00   0.00  0.00  0.00  1.00  0.00  0.00  0.00  0.03  0.00
  HS02004848HS02004852    1.00   0.03  0.00  0.00  0.97  0.00  0.00  0.00  0.62  0.00
  HS02004856HS02004862    1.00   0.00  0.04  0.00  0.96  0.00  0.00  0.00  0.83  0.00
  HS02004852HS02004856    1.00   0.03  0.00  0.00  0.97  0.00  0.00  0.00  0.85  0.00
  HS02004802HS02004478    1.00   0.03  0.00  0.00  0.97  0.00  0.00  0.00  0.02  0.00
  HS02004478WS02006287    1.00   0.04  0.00  0.00  0.78  0.18  0.00  0.00  0.64  0.00
  HS02004817HS02004807    1.00   0.00  0.03  0.00  0.97  0.00  0.00  0.00  0.01  0.00
  HS02004807HS02004802    1.00   0.03  0.00  0.00  0.96  0.00  0.00  0.00  0.00  0.00
  YS02001759YS02001757    1.00   0.00  0.00  0.00  1.00  0.00  0.00  0.00  0.16  0.00
  YS02001762YS02001759    1.00   0.00  0.00  0.00  1.00  0.00  0.00  0.00  0.03  0.00
  YS02001765YS02001762    1.00   0.00  0.00  0.00  1.00  0.00  0.00  0.00  0.13  0.00
  YS02001770YS02001767    1.00   0.00  0.00  0.00  1.00  0.00  0.00  0.00  0.00  0.00
  YS02001774YS02001770    1.00   0.00  0.03  0.00  0.97  0.00  0.00  0.00  0.02  0.00
  YS02001779YS02001774    1.00   0.00  0.00  0.00  1.00  0.00  0.00  0.00  0.18  0.00
  YS02001649YS02001757    1.00   0.00  0.00  0.00  1.00  0.00  0.00  0.00  0.16  0.00
  YS02001767YS02001765    1.00   0.00  0.00  0.00  1.00  0.00  0.00  0.00  0.00  0.00
  YS02006561YS02001783    1.00   0.05  0.00  0.00  0.36  0.59  0.00  0.00  0.47  0.00
  YS02001783YS02001784    1.00   0.00  0.05  0.00  0.95  0.00  0.00  0.00  0.01  0.00
  YS02001784YS02001785    1.00   0.00  0.00  0.00  1.00  0.00  0.00  0.00  0.17  0.00
  YS02001788YS02001790    1.00   0.00  0.00  0.00  0.39  0.61  0.00  0.00  0.39  0.00
  YS02001790YS02001791    1.00   0.00  0.00  0.00  0.37  0.63  0.00  0.00  0.49  0.00
  YS02001791YS02001793    1.00   0.00  0.00  0.00  0.42  0.58  0.00  0.00  0.03  0.00
  YS02001910YS02001907    1.00   0.00  0.00  0.00  0.99  0.00  0.00  0.01  0.12  0.00
  YS02001786YS02001788    1.00   0.00  0.00  0.00  0.37  0.63  0.00  0.00  0.00  0.00
  YS02001915YS02001910    1.00   0.00  0.00  0.00  0.99  0.01  0.00  0.00  0.15  0.00
  YS02001918YS02001915    1.00   0.00  0.00  0.00  0.99  0.00  0.00  0.00  0.55  0.00
  YS02001923YS02001920    1.00   0.00  0.00  0.00  1.00  0.00  0.00  0.00  0.84  0.00
  YS02001926YS02001923    1.00   0.00  0.02  0.00  0.13  0.00  0.85  0.00  0.00  0.00
  YS02001929YS02001926    1.00   0.00  0.03  0.00  0.97  0.00  0.00  0.00  0.77  0.00
  YS02001920YS02001918    1.00   0.00  0.00  0.00  1.00  0.00  0.00  0.00  0.00  0.00
  YS02001629YS02163301    1.00   0.04  0.00  0.00  0.96  0.00  0.00  0.00  0.00  0.00
  YS02001619YS02001622    1.00   0.03  0.00  0.00  0.97  0.00  0.00  0.00  0.00  0.00
  YS02001622YS02001625    1.00   0.03  0.00  0.00  0.97  0.00  0.00  0.00  0.04  0.00
  YS02001625YS02001629    1.00   0.03  0.01  0.00  0.94  0.00  0.02  0.00  0.00  0.00
  YS02163301YS02001633    1.00   0.00  0.04  0.00  0.96  0.00  0.00  0.00  0.00  0.00
  YS02163601YS02164001    1.00   0.00  0.02  0.00  0.98  0.00  0.00  0.00  0.00  0.00
  YS02164001YS02001641    1.00   0.00  0.02  0.00  0.98  0.00  0.00  0.00  0.06  0.00
  YS02001641YS02001644    1.00   0.00  0.00  0.00  1.00  0.00  0.00  0.00  0.00  0.00
  YS02001647YS02001649    1.00   0.00  0.04  0.00  0.96  0.00  0.00  0.00  0.01  0.00
  YS02006553YS02006556    1.00   0.00  0.00  0.00  1.00  0.00  0.00  0.00  0.03  0.00
  YS02006556YS02006558    1.00   0.00  0.00  0.00  1.00  0.00  0.00  0.00  0.00  0.00
  YSB6556YSB1171          1.00   0.01  0.02  0.00  0.97  0.00  0.00  0.00  0.00  0.00
  YS02001907YS02006553    1.00   0.00  0.01  0.00  0.99  0.00  0.00  0.00  0.00  0.00
  YS02006558YS02006561    1.00   0.05  0.00  0.00  0.12  0.83  0.00  0.00  0.48  0.00
  YS02001633YS02163601    1.00   0.00  0.00  0.00  1.00  0.00  0.00  0.00  0.15  0.00
  YS02001644YS02001647    1.00   0.00  0.04  0.00  0.96  0.00  0.00  0.00  0.00  0.00
  YS02001745YS02001748    1.00   0.00  0.00  0.00  0.92  0.01  0.00  0.08  0.04  0.00
  YS02001748YS02001751    1.00   0.00  0.00  0.00  0.97  0.03  0.00  0.00  0.15  0.00
  YS02001751YS02001754    1.00   0.00  0.00  0.00  0.95  0.00  0.00  0.05  0.02  0.00
  YS02001754YS02001757    1.00   0.00  0.00  0.00  1.00  0.00  0.00  0.00  0.18  0.00
  YS02001882YS02001884    1.00   0.04  0.00  0.00  0.96  0.00  0.00  0.00  0.00  0.00
  YS02001884YS02001887    1.00   0.02  0.01  0.00  0.97  0.00  0.00  0.00  0.00  0.00
  YS02001890YS02001895    1.00   0.00  0.04  0.00  0.96  0.00  0.00  0.00  0.00  0.00
  YS02001895YS02001898    1.00   0.04  0.00  0.00  0.95  0.00  0.01  0.00  0.00  0.00
  YS02001898YS02001901    1.00   0.04  0.00  0.00  0.96  0.00  0.00  0.00  0.01  0.00
  YS02001901YS02001904    1.00   0.04  0.00  0.00  0.96  0.00  0.00  0.00  0.00  0.00
  YS02001904YS02001907    1.00   0.00  0.04  0.00  0.96  0.00  0.00  0.00  0.00  0.00
  YS02001887YS02001890    1.00   0.00  0.00  0.00  0.99  0.00  0.01  0.00  0.00  0.00
  YS02001652YS02001649    1.00   0.00  0.00  0.00  1.00  0.00  0.00  0.00  0.16  0.00
  YS02001655YS02001652    1.00   0.00  0.00  0.00  0.95  0.00  0.00  0.05  0.02  0.00
  YS02001658YS02001655    1.00   0.00  0.04  0.00  0.94  0.03  0.00  0.00  0.08  0.00
  YS02001661YS02001658    1.00   0.04  0.00  0.00  0.92  0.05  0.00  0.00  0.09  0.00
  YS02001664YS02001661    1.00   0.03  0.00  0.00  0.92  0.05  0.00  0.00  0.19  0.00
  YSB1154YSB6556          1.00   0.03  0.00  0.00  0.97  0.00  0.00  0.00  0.01  0.00
  YSB1174YSB1171          1.00   0.01  0.01  0.00  0.98  0.00  0.00  0.00  0.00  0.00
  YSB1171HS02004479       1.00   0.01  0.00  0.00  0.99  0.00  0.00  0.00  0.10  0.00
  HS02004881HS02006253    1.00   0.01  0.00  0.00  0.74  0.02  0.00  0.22  0.57  0.00
  YS02001793JiankangQianchi    1.00   0.00  0.00  0.00  0.69  0.31  0.00  0.00  0.38  0.00
  YS02001757CaochengTiaoxuchi    1.00   0.00  0.06  0.00  0.94  0.00  0.00  0.00  0.00  0.00
  WSF200WS02003060        1.00   0.00  0.02  0.00  0.98  0.00  0.00  0.00  0.33  0.00
  1                       1.00   0.00  0.00  0.00  0.00  1.00  0.00  0.00  0.47  0.00
  
  
  *************************
  Conduit Surcharge Summary
  *************************
  
  ----------------------------------------------------------------------------
                                                           Hours        Hours 
                         --------- Hours Full --------   Above Full   Capacity
  Conduit                Both Ends  Upstream  Dnstream   Normal Flow   Limited
  ----------------------------------------------------------------------------
  WS02006229WS02006228        4.32      4.40      4.32      5.46         4.32
  WS02006256WS02006235        5.98      5.99      6.71      4.44         0.01
  WS02006253WS02006251        2.10      2.10      2.16      0.01         0.01
  WS02006252WS02006251        1.86      1.86      2.75      2.38         0.01
  WS02006251WS02006249        2.12      2.12      2.19      1.64         1.43
  WS02006249WS02006248        2.13      2.13      2.19      3.96         0.01
  WS02006248WS02006247        2.18      2.18      2.41      0.01         0.01
  WS02006247WS02006245        2.40      2.47      2.40      4.28         2.37
  WS02006245WS02006243        2.45      2.45      2.59      0.63         0.60
  WS02006243WS02006242        2.65      2.65      3.05      0.01         0.01
  WS02006242WS02006240        2.93      2.93      3.24      2.67         0.01
  WS02006240WS02006239        2.96      2.97      3.05      1.66         1.21
  WS02006239WS02006238        3.38      3.40      3.67      1.73         1.34
  WS02006238WS02006235        3.64      3.64      3.85      0.01         0.01
  WS02006235WS02006234        2.89      2.89      3.55      5.97         0.01
  WS02006234WS02006232        3.39      3.39      4.07      1.14         1.11
  WS02006232WS02006231        2.00      2.00      4.07      1.27         0.01
  WS02006231WS02006230        1.58      1.58      2.07      5.97         0.01
  WS02006230WS02006229        4.89      5.27      4.89      6.06         4.89
  WS02006228WS02006109        4.36      4.61      4.36      5.98         4.36
  WS02006116WS02004401        0.29      0.29      0.30      0.24         0.23
  WS02006115WS02006116        0.18      0.18      0.19      0.14         0.13
  WS02006112WS02006115        0.16      0.16      2.89      0.01         0.01
[...]
  YS02001765YS02001762        5.84      5.84      5.87      0.01         0.01
  YS02001770YS02001767        5.81      5.81      5.81      0.19         0.85
  YS02001774YS02001770        5.80      5.80      5.86      0.01         0.01
  YS02001779YS02001774        5.68      5.68      5.86      0.01         0.01
  YS02001649YS02001757        5.87      5.87      5.98      0.01         0.01
  YS02001767YS02001765        5.81      5.81      5.84      0.01         0.01
  YS02006561YS02001783        0.77      0.77      1.04      0.01         0.01
  YS02001783YS02001784        1.02      1.04      1.02      1.40         1.01
  YS02001784YS02001785        0.96      1.02      0.96      2.38         0.96
  YS02001788YS02001790        0.91      0.91      1.71      0.01         0.01
  YS02001790YS02001791        1.71      1.71      1.82      0.87         0.84
  YS02001791YS02001793        1.82      1.82      2.18      0.01         0.01
  YS02001910YS02001907        1.06      1.06      1.75      0.01         0.01
  YS02001786YS02001788        0.91      0.96      0.91      1.95         0.91
  YS02001915YS02001910        0.89      0.89      1.06      0.01         0.01
  YS02001918YS02001915        0.71      0.71      0.89      0.01         0.01
  YS02001923YS02001920        0.53      0.53      0.73      0.01         0.01
  YS02001920YS02001918        0.71      0.71      0.73      0.01         0.01
  YS02001629YS02163301        5.80      5.80      5.81      0.01         0.01
  YS02001619YS02001622        5.47      5.47      5.51      0.01         0.01
  YS02001622YS02001625        5.50      5.50      5.76      0.01         0.01
  YS02001625YS02001629        5.48      5.48      5.76      0.01         0.01
  YS02163301YS02001633        5.81      5.81      5.84      0.01         0.01
  YS02163601YS02164001        5.84      5.84      5.87      0.01         0.01
  YS02164001YS02001641        5.84      5.84      5.85      0.01         0.03
  YS02001641YS02001644        5.85      5.85      5.85      1.52         1.73
  YS02001647YS02001649        5.75      5.75      5.87      0.01         0.01
  YS02006553YS02006556        1.30      1.30      1.86      0.01         0.01
  YS02006556YS02006558        1.52      1.52      1.93      0.01         0.01
  YS02001907YS02006553        2.41      2.41      2.62      0.01         0.01
  YS02006558YS02006561        0.90      1.26      0.90      2.23         0.90
  YS02001633YS02163601        5.83      5.83      5.87      0.01         0.01
  YS02001644YS02001647        5.75      5.75      5.85      0.01         0.01
  YS02001745YS02001748        0.01      0.01      5.30      0.01         0.01
  YS02001748YS02001751        5.36      5.36      5.48      0.01         0.01
  YS02001751YS02001754        5.48      5.48      5.69      0.01         0.01
  YS02001754YS02001757        5.74      5.74      5.98      0.01         0.01
  YS02001882YS02001884        0.90      0.90      0.93      0.01         0.01
  YS02001884YS02001887        0.97      0.97      0.99      0.01         0.01
  YS02001890YS02001895        0.87      0.87      1.08      0.01         0.01
  YS02001895YS02001898        0.86      0.86      0.87      0.01         0.01
  YS02001898YS02001901        0.88      0.88      0.96      0.01         0.01
  YS02001901YS02001904        0.94      0.94      0.96      0.01         0.01
  YS02001904YS02001907        0.94      0.94      1.87      0.01         0.01
  YS02001887YS02001890        1.02      1.02      1.03      0.01         0.01
  YS02001652YS02001649        5.76      5.76      5.87      0.01         0.01
  YS02001655YS02001652        5.50      5.50      5.73      0.01         0.01
  YS02001658YS02001655        5.33      5.33      5.50      0.01         0.01
  YS02001661YS02001658        0.21      0.21      5.33      0.01         0.01
  YS02001664YS02001661        0.01      0.01      1.11      0.01         0.01
  HS02004881HS02006253        0.01      0.01      1.29      0.01         0.01
  YS02001793JiankangQianchi        2.08      2.08      3.82      0.01         0.01
  YS02001757CaochengTiaoxuchi        5.21      5.21      5.98      0.01         0.01
  
  
  ***************
  Pumping Summary
  ***************
  
  ---------------------------------------------------------------------------------------------------------
                                                  Min       Avg       Max     Total     Power    % Time Off
                        Percent   Number of      Flow      Flow      Flow    Volume     Usage    Pump Curve
  Pump                 Utilized   Start-Ups       LPS       LPS       LPS  10^6 ltr     Kw-hr    Low   High
  ---------------------------------------------------------------------------------------------------------
  CC-Pump-1               61.70           2      0.00    178.07    200.00     3.060      3.46    0.0    0.0
  CC-Pump-2               42.55           5      0.00    103.45    200.00     1.560      2.24    0.0    0.0
  JK-Pump-1               63.83           5      0.00    233.14    300.00     3.851     58.78    0.0    0.0
  JK-Pump-2               55.32           5      0.00    426.47    683.00     6.016     89.01    0.0   96.1
  XR-Pump-1               97.87           2      0.00     94.21     95.00     2.565     25.93    0.0    0.0
  XR-Pump-2               97.87           2      0.00     94.21     95.00     2.565     25.93    0.0    0.0
  XR-Pump-3               95.74           3      0.00     93.73     95.00     2.451     23.33    0.0    0.0
  XR-Pump-4               95.74           3      0.00     93.73     95.00     2.451     23.33    0.0    0.0
  
  
  ***************************
  Link Pollutant Load Summary
  ***************************
  
  ------------------------------------------------------------------------------------------
                                 COD            SS            TN            TP         NH4-N
  Link                            kg            kg            kg            kg            kg
  ------------------------------------------------------------------------------------------
  WS02003066WSF200           853.598      1564.676        22.517         1.960        11.857
  WS02006287WS02006284       268.071       498.240         9.346         0.943         5.214
  WS02006284WS02006280       268.559       499.025         9.394         0.949         5.243
  WS02006280WS02006229       268.522       498.956         9.392         0.949         5.242
  WS02006229WS02006228       850.846      1559.901        21.998         1.888        11.521
  WS02006256WS02006235       199.573       364.016         4.503         0.355         2.290
  WS02006253WS02006251        50.178        96.804         1.133         0.086         0.564
  WS02006252WS02006251       375.338       677.217         7.877         0.564         3.870
  WS02006251WS02006249       419.583       763.383         8.905         0.644         4.387
  WS02006249WS02006248       391.298       712.001         8.305         0.600         4.091
  WS02006248WS02006247       391.100       711.689         8.302         0.600         4.090
  WS02006247WS02006245       390.634       710.862         8.291         0.599         4.084
  WS02006245WS02006243       390.085       709.972         8.275         0.598         4.076
  WS02006243WS02006242       389.780       709.452         8.271         0.598         4.074
  WS02006242WS02006240       389.054       708.211         8.253         0.597         4.065
  WS02006240WS02006239       389.255       708.688         8.256         0.597         4.066
  WS02006239WS02006238       390.376       710.708         8.290         0.600         4.085
  WS02006238WS02006235       390.885       711.493         8.308         0.602         4.096
  WS02006235WS02006234       586.210      1067.761        12.706         0.948         6.331
  WS02006234WS02006232       585.645      1066.760        12.698         0.947         6.328
  WS02006232WS02006231       584.856      1065.367        12.680         0.946         6.318
  WS02006231WS02006230       584.244      1064.265        12.668         0.945         6.313
  WS02006230WS02006229       583.261      1062.581        12.639         0.943         6.297
  WS02006228WS02006109       849.702      1557.920        21.961         1.885        11.501
  WS02006116WS02004401       861.472      1578.593        22.728         1.978        11.968
  WS02006115WS02006116       862.311      1580.049        22.758         1.981        11.985
  WS02006113WS02006111       855.323      1566.549        22.674         1.976        11.953
  WS02006112WS02006115       863.307      1581.783        22.798         1.985        12.007
  WS02006111WS02006112       854.861      1565.719        22.661         1.975        11.947
  WS02006110WS02006113       855.830      1567.421        22.694         1.978        11.965
  WS02006109WS02006110       856.963      1569.378        22.740         1.983        11.991
  WS02004411WS02004412       856.263      1569.332        22.618         1.971        11.914
  WS02004401WS02004402       860.604      1577.083        22.693         1.974        11.948
  WS02004413WS02003067       854.122      1565.611        22.530         1.961        11.863
  WS02004412WS02004413       855.375      1567.774        22.591         1.968        11.899
  WS02004410WS02004411       856.944      1570.528        22.639         1.972        11.925
  WS02004409WS02004410       857.615      1571.703        22.662         1.975        11.938
  WS02004407WS02004409       858.113      1572.575        22.675         1.976        11.945
  WS02004406WS02004407       858.215      1572.755        22.674         1.975        11.944
  WS02004405WS02004406       859.428      1574.826        22.739         1.983        11.983
  WS02004404WS02004405       859.864      1575.634        22.728         1.981        11.974
  WS02004403WS02004404       859.195      1574.630        22.638         1.969        11.916
  WS02004402WS02004403       859.887      1575.838        22.667         1.972        11.933
  WS02004139WS02001211      1410.810      2324.160       117.347        14.370        72.467
  WS02004138WS02004139      1417.307      2334.890       117.871        14.434        72.790
  WS02003067WS02003066       853.752      1564.953        22.522         1.961        11.860
  WS02001213WS02003059      1443.501      2375.743       120.700        14.793        74.573
  WS02001212WS02001213      1452.896      2391.165       121.488        14.890        75.060
  WS02001211WS02001212      1454.982      2394.557       121.671        14.912        75.174
  WS02003072WS02003073      2396.913      4099.226       153.105        17.994        92.623
  WS02003069WS02003072      2402.026      4107.560       153.541        18.048        92.893
  WS02003060WS02003069      2404.760      4112.188       153.715        18.068        92.998
  WS02003059WS02003060      1440.505      2370.736       120.476        14.766        74.436
  HS02004901HS02004770        10.271        19.478         0.196         0.015         0.091
  HS02004876HS02004881        37.319        72.583         0.843         0.062         0.416
  HS02004870HS02004876        28.161        54.630         0.678         0.051         0.338
  HS02004842HS02004848         5.467        10.276         0.115         0.008         0.053
  HS02004837HS02004842        10.072        17.581         0.584         0.067         0.347
  HS02004830HS02004837        65.639       112.705         4.557         0.546         2.785
  HS02004824HS02004830        66.391       113.909         4.628         0.555         2.830
  HS02004817HS02004824        88.209       156.980         5.083         0.584         3.051
  HS02004770HS02004777        39.298        75.470         0.819         0.055         0.377
  HS02004799HS02004480       131.418       245.389         3.680         0.335         1.933
  HS02004792HS02004799       119.092       220.676         3.497         0.327         1.853
  HS02004788HS02004792        68.400       126.865         2.388         0.235         1.309
  HS02004785HS02004788        40.736        77.766         0.969         0.074         0.471
  HS02004777HS02004785        40.062        76.672         0.909         0.067         0.434
  HS02004480HS02004478       165.960       312.614         4.243         0.374         2.195
  HS02004479HS02004480        38.144        72.974         0.884         0.079         0.462
  HS02004862HS02004870        21.016        40.119         0.536         0.043         0.270
  HS02004848HS02004852         8.058        15.280         0.167         0.011         0.077
  HS02004856HS02004862        14.072        27.342         0.284         0.019         0.133
  HS02004852HS02004856         8.065        15.291         0.167         0.011         0.077
  HS02004802HS02004478       102.889       186.894         5.163         0.576         3.055
  HS02004478WS02006287       268.267       498.569         9.363         0.945         5.224
  HS02004817HS02004807        86.890       154.865         4.957         0.568         2.972
  HS02004807HS02004802       103.116       187.248         5.194         0.580         3.075
  YS02001759YS02001757       336.727       611.576         6.774         0.468         3.310
  YS02001762YS02001759       163.916       298.400         3.506         0.246         1.736
  YS02001765YS02001762       164.155       299.307         3.531         0.248         1.751
  YS02001770YS02001767       163.980       300.483         3.334         0.219         1.619
  YS02001774YS02001770       177.602       341.943         3.434         0.227         1.660
  YS02001779YS02001774       176.533       339.754         3.521         0.241         1.722
  YS02001649YS02001757       330.853       586.405         6.682         0.463         3.207
  YS02001767YS02001765       164.926       301.149         3.561         0.250         1.767
  YS02006561YS02001783       935.936      1716.395        19.830         1.488         9.897
  YS02001783YS02001784       935.808      1716.188        19.826         1.488         9.894
  YS02001784YS02001785       943.122      1727.903        20.538         1.577        10.340
  YS02001788YS02001790       943.719      1728.864        20.612         1.587        10.387
  YS02001790YS02001791       944.802      1730.626        20.720         1.600        10.455
  YS02001791YS02001793       944.657      1730.360        20.715         1.600        10.452
  YS02001910YS02001907       330.097       599.196         8.233         0.642         4.254
  YS02001786YS02001788       943.306      1728.204        20.566         1.581        10.358
  YS02001915YS02001910       330.189       599.342         8.189         0.636         4.224
  YS02001918YS02001915       159.918       277.959         4.661         0.434         2.538
  YS02001923YS02001920       137.643       241.467         2.676         0.188         1.303
  YS02001926YS02001923       136.676       239.892         2.595         0.178         1.253
  YS02001929YS02001926       136.171       239.031         2.555         0.174         1.228
  YS02001920YS02001918       157.903       273.995         4.593         0.427         2.500
  YS02001629YS02163301       103.530       183.445         2.171         0.140         1.012
  YS02001619YS02001622       146.394       262.930         3.031         0.197         1.414
  YS02001622YS02001625       145.237       261.101         3.003         0.195         1.401
  YS02001625YS02001629       104.622       185.254         2.195         0.142         1.023
  YS02163301YS02001633       103.253       182.978         2.164         0.140         1.010
  YS02163601YS02164001       362.051       646.221         7.116         0.502         3.404
  YS02164001YS02001641       361.570       645.408         7.097         0.501         3.393
  YS02001641YS02001644       361.809       645.735         7.095         0.500         3.391
  YS02001647YS02001649       381.639       685.268         7.607         0.528         3.633
  YS02006553YS02006556       657.501      1200.141        14.233         1.095         7.179
  YS02006556YS02006558       657.431      1199.995        14.201         1.090         7.157
  YSB6556YSB1171              21.951        42.196         0.451         0.038         0.229
  YS02001907YS02006553       657.624      1200.394        14.247         1.097         7.188
  YS02006558YS02006561       935.988      1716.482        19.831         1.488         9.897
  YS02001633YS02163601       362.748       647.301         7.096         0.498         3.387
  YS02001644YS02001647       386.056       693.401         7.680         0.533         3.667
  YS02001745YS02001748       210.054       386.437         4.723         0.329         2.357
  YS02001748YS02001751       208.153       382.828         4.766         0.339         2.393
  YS02001751YS02001754       207.180       381.232         4.748         0.338         2.385
  YS02001754YS02001757       207.947       382.386         4.912         0.360         2.492
  YS02001882YS02001884         2.698         4.650         0.054         0.004         0.027
  YS02001884YS02001887         6.897        12.222         0.135         0.010         0.067
  YS02001890YS02001895       389.439       720.608         7.189         0.539         3.508
  YS02001895YS02001898       389.243       720.326         7.182         0.539         3.504
  YS02001898YS02001901       389.025       719.954         7.177         0.538         3.502
  YS02001901YS02001904       388.865       719.723         7.184         0.540         3.507
  YS02001904YS02001907       389.055       720.003         7.237         0.547         3.541
  YS02001887YS02001890       390.248       721.819         7.243         0.546         3.541
  YS02001652YS02001649       152.204       278.633         3.103         0.223         1.455
  YS02001655YS02001652       152.834       279.652         3.119         0.224         1.463
  YS02001658YS02001655       152.405       278.963         3.034         0.213         1.407
  YS02001661YS02001658       156.952       287.064         3.127         0.219         1.450
  YS02001664YS02001661       177.105       320.698         3.572         0.250         1.654
  YSB1154YSB6556              21.533        41.529         0.402         0.032         0.198
  YSB1174YSB1171              14.654        28.290         0.298         0.024         0.149
  YSB1171HS02004479           38.103        72.907         0.887         0.079         0.465
  HS02004881HS02006253        42.316        82.655         0.926         0.067         0.455
  YS02001793JiankangQianchi       948.818      1737.135        20.897         1.619        10.557
  YS02001757CaochengTiaoxuchi       610.213      1088.860        12.945         0.922         6.357
  WSF200WS02003060           853.356      1564.237        22.516         1.960        11.857
  1                         2402.797      4108.020       153.886        18.095        93.120
  CC-Pump-1                  250.113       451.635         5.247         0.376         2.578
  CC-Pump-2                  125.230       225.591         2.631         0.188         1.292
  JK-Pump-1                  252.893       462.877         5.650         0.442         2.866
  JK-Pump-2                  461.454       860.144         9.603         0.722         4.784
  XR-Pump-1                  368.500       606.436        30.818         3.777        19.041
  XR-Pump-2                  368.500       606.436        30.818         3.777        19.041
  XR-Pump-3                  342.071       564.150        28.281         3.460        17.455
  XR-Pump-4                  342.071       564.150        28.281         3.460        17.455
  

  Analysis begun on:  Wed Jul 14 10:19:14 2021
  Analysis ended on:  Wed Jul 14 10:19:17 2021
  Total elapsed time: 00:00:03