
  EPA STORM WATER MANAGEMENT MODEL - VERSION 5.1 (Build 5.3.0.dev0)
  --------------------------------------------------------------

  WARNING 04: minimum elevation drop used for Conduit WS02004404WS02004405
  WARNING 03: negative offset ignored for Link YS02001904YS02001907
  
  *********************************************************
  NOTE: The summary statistics displayed in this report are
  based on results found at every computational time step,  
  not just on results from each reporting time step.
  *********************************************************
  
  ****************
  Analysis Options
  ****************
  Flow Units ............... LPS
  Process Models:
    Rainfall/Runoff ........ YES
    RDII ................... NO
    Snowmelt ............... NO
    Groundwater ............ NO
    Flow Routing ........... YES
    Ponding Allowed ........ NO
    Water Quality .......... YES
  Infiltration Method ...... HORTON
  Flow Routing Method ...... DYNWAVE
  Surcharge Method ......... EXTRAN
  Starting Date ............ 08/28/2015 08:00:00
  Ending Date .............. 08/28/2015 15:50:00
  Antecedent Dry Days ...... 8.0
  Report Time Step ......... 00:01:00
  Wet Time Step ............ 00:01:00
  Dry Time Step ............ 00:01:00
  Routing Time Step ........ 5.00 sec
  Variable Time Step ....... YES
  Maximum Trials ........... 8
  Number of Threads ........ 4
  Head Tolerance ........... 0.001500 m
  
  
  **************************        Volume         Depth
  Runoff Quantity Continuity     hectare-m            mm
  **************************     ---------       -------
  Total Precipitation ......         5.556        12.164
  Evaporation Loss .........         0.000         0.000
  Infiltration Loss ........         1.002         2.194
  Surface Runoff ...........         3.688         8.075
  Final Storage ............         0.866         1.897
  Continuity Error (%) .....        -0.019
  
  
  **************************           COD            SS            TN            TP         NH4-N
  Runoff Quality Continuity             kg            kg            kg            kg            kg
  **************************    ----------    ----------    ----------    ----------    ----------
  Initial Buildup ..........     41378.656     70582.865      1804.177       168.684      1032.807
  Surface Buildup ..........        19.275        34.271         2.335         0.213         1.362
  Wet Deposition ...........         0.000         0.000         0.000         0.000         0.000
  Sweeping Removal .........         0.000         0.000         0.000         0.000         0.000
  Infiltration Loss ........        84.023       157.502         1.599         0.111         0.761
  BMP Removal ..............         0.000         0.000         0.000         0.000         0.000
  Surface Runoff ...........      3122.074      5752.154        60.620         4.098        28.771
  Remaining Buildup ........     38190.779     64705.500      1744.271       164.686      1004.628
  Continuity Error (%) .....         0.003         0.003         0.001         0.001         0.001
  
  
  **************************        Volume        Volume
  Flow Routing Continuity        hectare-m      10^6 ltr
  **************************     ---------     ---------
  Dry Weather Inflow .......         0.616         6.165
  Wet Weather Inflow .......         3.687        36.872
  Groundwater Inflow .......         0.000         0.000
  RDII Inflow ..............         0.000         0.000
  External Inflow ..........         0.102         1.024
  External Outflow .........         2.126        21.265
  Flooding Loss ............         1.905        19.052
  Evaporation Loss .........         0.000         0.000
  Exfiltration Loss ........         0.000         0.000
  Initial Stored Volume ....         0.076         0.761
  Final Stored Volume ......         0.595         5.946
  Continuity Error (%) .....        -3.217
  
  
  **************************           COD            SS            TN            TP         NH4-N
  Quality Routing Continuity            kg            kg            kg            kg            kg
  **************************    ----------    ----------    ----------    ----------    ----------
  Dry Weather Inflow .......      1541.201      2465.922       147.955        18.494        92.472
  Wet Weather Inflow .......      3121.483      5751.197        60.607         4.097        28.765
  Groundwater Inflow .......         0.000         0.000         0.000         0.000         0.000
  RDII Inflow ..............         0.000         0.000         0.000         0.000         0.000
  External Inflow ..........       183.418       293.469        17.608         2.201        11.005
  External Outflow .........      2432.410      4164.916       154.009        18.069        93.095
  Flooding Loss ............      1740.711      3201.073        45.397         3.987        23.940
  Exfiltration Loss ........         0.000         0.000         0.000         0.000         0.000
  Mass Reacted .............         0.000         0.000         0.000         0.000         0.000
  Initial Stored Mass ......         0.000         0.000         0.000         0.000         0.000
  Final Stored Mass ........       484.073       816.351        22.471         2.414        13.063
  Continuity Error (%) .....         3.898         3.857         1.898         1.301         1.621
  
  
  *************************
  Highest Continuity Errors
  *************************
  Node HS02004842 (14.53%)
  Node JK-storage (-14.23%)
  Node YS02001884 (10.92%)
  Node YSB1171 (2.74%)
  Node HS02004817 (2.73%)
  
  
  ***************************
  Time-Step Critical Elements
  ***************************
  Link WS02006252WS02006251 (42.94%)
  Link WS02006280WS02006229 (13.09%)
  Link WS02004404WS02004405 (9.29%)
  Link WS02006238WS02006235 (6.97%)
  Link YS02001793JiankangQianchi (6.83%)
  
  
  ********************************
  Highest Flow Instability Indexes
  ********************************
  Link WS02006113WS02006111 (42)
  Link WS02006238WS02006235 (39)
  Link YS02163601YS02164001 (37)
  Link YS02001619YS02001622 (36)
  Link YS02001629YS02163301 (36)
  
  
  *************************
  Routing Time Step Summary
  *************************
  Minimum Time Step           :     0.50 sec
  Average Time Step           :     1.36 sec
  Maximum Time Step           :     5.00 sec
  Percent in Steady State     :    -0.00
  Average Iterations per Step :     4.52
  Percent Not Converging      :    23.51
  
  
  ***************************
  Subcatchment Runoff Summary
  ***************************
  
  ------------------------------------------------------------------------------------------------------------------------------
                            Total      Total      Total      Total     Imperv       Perv      Total       Total     Peak  Runoff
                           Precip      Runon       Evap      Infil     Runoff     Runoff     Runoff      Runoff   Runoff   Coeff
  Subcatchment                 mm         mm         mm         mm         mm         mm         mm    10^6 ltr      LPS
  ------------------------------------------------------------------------------------------------------------------------------
  sub0                      12.16       0.00       0.00       0.65      11.27       0.20      11.47        0.01     1.99   0.943
  sub1                      12.16       0.00       0.00       1.12      10.73       0.22      10.95        0.07    14.96   0.900
  sub2                      12.16       0.00       0.00       4.23       7.58       0.27       7.85        0.07    15.08   0.646
  sub3                      12.16       0.00       0.00       4.29       7.54       0.21       7.75        0.17    34.61   0.637
  sub4                      12.16       0.00       0.00       1.19      10.57       0.14      10.71        0.22    42.34   0.881
  sub5                      12.16       0.00       0.00       0.69      11.21       0.16      11.38        0.13    26.18   0.935
  sub7                      12.16       0.00       0.00       0.88      11.01       0.22      11.22        0.04     7.95   0.923
  sub8                      12.16       0.00       0.00       0.89      11.00       0.21      11.20        0.07    14.89   0.921
  sub9                      12.16       0.00       0.00       0.89      10.99       0.21      11.20        0.05    11.18   0.921
  sub10                     12.16       0.00       0.00       0.79      11.10       0.18      11.28        0.12    25.49   0.928
  sub11                     12.16       0.00       0.00       0.78      11.12       0.19      11.31        0.13    27.35   0.930
  sub12                     12.16       0.00       0.00       1.27      10.53       0.31      10.85        0.09    20.52   0.892
  sub14                     12.16       0.00       0.00       0.89      10.99       0.20      11.20        0.11    22.08   0.920
  sub15                     12.16       0.00       0.00       3.28       8.45       0.37       8.82        0.15    32.49   0.725
  sub16                     12.16       0.00       0.00       3.51       8.11       0.50       8.61        0.09    20.36   0.708
  sub17                     12.16       0.00       0.00       3.41       8.23       0.48       8.71        0.07    16.72   0.716
  sub22                     12.16       0.00       0.00       4.80       6.89       0.43       7.32        0.46   102.62   0.602
  sub23                     12.16       0.00       0.00       4.05       7.62       0.45       8.07        0.38    85.35   0.663
  sub60                     12.16       0.00       0.00       1.42       8.82       0.04       8.86        2.69   336.84   0.729
  sub61                     12.16       0.00       0.00       2.01       8.94       0.06       9.00        2.78   399.45   0.740
  sub62                     12.16       0.00       0.00       0.92       9.73       0.05       9.78        3.01   415.79   0.804
  sub63                     12.16       0.00       0.00       3.46       7.82       0.06       7.88        2.39   361.21   0.648
  sub64                     12.16       0.00       0.00       1.78       8.47       0.04       8.51        2.59   320.97   0.699
  sub65                     12.16       0.00       0.00       1.54       8.61       0.04       8.65        2.66   326.54   0.711
  sub66                     12.16       0.00       0.00       3.49       7.26       0.04       7.30        2.24   290.53   0.600
  sub67                     12.16       0.00       0.00       0.91      10.24       0.07      10.31        3.18   494.23   0.848
  sub68                     12.16       0.00       0.00       1.64       9.40       0.06       9.46        2.91   432.52   0.778
  sub69                     12.16       0.00       0.00       1.73       9.72       0.09       9.82        2.29   383.95   0.807
  sub70                     12.16      10.02       0.00       6.98      13.09       0.56      13.65        3.12   394.93   0.615
  sub71                     12.16       0.00       0.00       0.93       9.48       0.05       9.53        2.25   296.34   0.783
  sub72                     12.16       0.00       0.00       0.83       7.62       0.02       7.64        1.56   151.13   0.628
  1                         12.16      13.29       0.00       1.37      14.64       3.94      18.57        4.36   399.24   0.730
  2                         12.16       0.00       0.00       3.02       2.89       1.65       4.55        1.82   245.52   0.374
  
  
  ****************************
  Subcatchment Washoff Summary
  ****************************
  
  ------------------------------------------------------------------------------------------
                                 COD            SS            TN            TP         NH4-N
  Subcatchment                    kg            kg            kg            kg            kg
  ------------------------------------------------------------------------------------------
  sub0                         2.176         4.147         0.037         0.003         0.018
  sub1                         9.268        18.138         0.173         0.012         0.083
  sub2                         5.563        10.570         0.119         0.008         0.054
  sub3                        13.747        25.918         0.288         0.019         0.132
  sub4                        21.530        42.606         0.429         0.026         0.205
  sub5                        21.300        41.103         0.378         0.029         0.183
  sub7                         4.748         9.424         0.090         0.006         0.043
  sub8                         7.142        14.500         0.143         0.008         0.069
  sub9                         6.100        12.212         0.118         0.007         0.057
  sub10                       17.532        34.266         0.321         0.023         0.155
  sub11                       17.086        33.770         0.320         0.022         0.154
  sub12                       14.392        27.890         0.260         0.019         0.125
  sub14                       13.021        25.823         0.247         0.016         0.119
  sub15                       16.182        30.744         0.313         0.023         0.146
  sub16                       10.318        19.555         0.197         0.015         0.092
  sub17                        9.471        17.789         0.175         0.014         0.082
  sub22                       48.821        90.813         0.932         0.070         0.434
  sub23                       29.138        56.181         0.627         0.041         0.287
  sub60                      203.703       376.194         4.083         0.248         1.956
  sub61                      251.300       461.579         4.699         0.320         2.261
  sub62                      262.762       491.326         5.157         0.324         2.474
  sub63                      185.047       334.594         3.739         0.261         1.731
  sub64                      253.867       452.095         4.687         0.339         2.235
  sub65                      260.106       465.192         4.834         0.344         2.309
  sub66                      146.558       263.078         3.037         0.197         1.417
  sub67                      388.205       718.566         6.963         0.510         3.363
  sub68                      276.714       513.393         5.318         0.356         2.539
  sub69                      247.676       464.012         4.658         0.325         2.225
  sub70                      413.256       778.342         8.287         0.572         3.877
  sub71                      173.740       327.842         3.597         0.206         1.720
  sub72                      136.329       239.316         2.558         0.174         1.230
  1                          280.724       531.718         5.751         0.398         2.660
  2                           35.485        61.812         1.030         0.062         0.437
  ------------------------------------------------------------------------------------------
  System                    3783.006      6994.507        73.566         4.996        34.873
  
  
  ******************
  Node Depth Summary
  ******************
  
  ---------------------------------------------------------------------------------
                                 Average  Maximum  Maximum  Time of Max    Reported
                                   Depth    Depth      HGL   Occurrence   Max Depth
  Node                 Type       Meters   Meters   Meters  days hr:min      Meters
  ---------------------------------------------------------------------------------
  WS02001211           JUNCTION     0.78     0.83     5.67     0  03:09        0.83
  WS02001212           JUNCTION     0.49     0.55     5.62     0  03:09        0.55
  WS02001213           JUNCTION     0.73     0.83     5.59     0  03:08        0.82
  WS02003069           JUNCTION     0.54     0.68     5.27     0  03:07        0.68
  WS02003072           JUNCTION     0.60     0.73     5.10     0  03:08        0.73
  WS02003073           JUNCTION     0.37     0.46     4.52     0  03:08        0.46
  WS02003060           JUNCTION     0.48     0.60     5.53     0  03:07        0.60
  WS02003066           JUNCTION     0.27     0.36     5.92     0  03:05        0.36
  WS02003059           JUNCTION     0.78     0.88     5.57     0  03:08        0.88
  WS02003067           JUNCTION     0.63     0.79     6.11     0  03:05        0.79
  WS02004401           JUNCTION     0.78     1.14     7.14     0  03:03        1.13
  WS02004402           JUNCTION     0.80     1.14     7.10     0  03:03        1.13
  WS02004403           JUNCTION     0.82     1.13     7.06     0  03:03        1.12
  WS02004404           JUNCTION     0.89     1.18     7.03     0  03:03        1.18
  WS02004406           JUNCTION     0.89     1.12     6.95     0  03:03        1.12
  WS02004409           JUNCTION     0.59     0.87     6.64     0  03:04        0.87
  WS02004410           JUNCTION     0.61     0.87     6.59     0  03:04        0.87
  WS02004411           JUNCTION     0.61     0.86     6.54     0  03:05        0.86
  WS02004412           JUNCTION     0.62     0.84     6.48     0  03:05        0.84
  WS02004413           JUNCTION     0.77     0.98     6.45     0  03:05        0.98
  WS02004405           JUNCTION     0.88     1.15     7.00     0  03:03        1.15
  WS02006109           JUNCTION     0.88     1.31     7.93     0  03:02        1.30
  WS02006110           JUNCTION     0.85     1.15     7.73     0  03:03        1.14
  WS02006111           JUNCTION     0.27     0.65     7.36     0  03:03        0.65
  WS02006112           JUNCTION     0.96     1.42     7.30     0  03:03        1.41
  WS02006113           JUNCTION     0.41     0.65     7.54     0  03:02        0.65
  WS02006115           JUNCTION     0.68     1.09     7.23     0  03:03        1.09
  WS02006116           JUNCTION     0.75     1.15     7.19     0  03:03        1.14
  WS02006230           JUNCTION     0.93     1.52     8.27     0  03:02        1.51
  WS02006231           JUNCTION     0.65     1.22     8.34     0  03:02        1.21
  WS02006232           JUNCTION     0.81     1.36     8.40     0  03:02        1.35
  WS02006234           JUNCTION     0.77     1.32     8.47     0  03:02        1.31
  WS02006235           JUNCTION     0.82     1.37     8.53     0  03:02        1.36
  WS02006238           JUNCTION     0.84     1.39     8.54     0  03:02        1.38
  WS02006240           JUNCTION     0.77     1.28     8.57     0  03:02        1.28
  WS02006242           JUNCTION     0.83     1.33     8.60     0  03:02        1.32
  WS02006243           JUNCTION     0.73     1.21     8.63     0  03:03        1.20
  WS02006245           JUNCTION     0.71     1.17     8.65     0  03:02        1.16
  WS02006247           JUNCTION     0.72     1.17     8.67     0  03:01        1.16
  WS02006248           JUNCTION     0.66     1.09     8.68     0  03:04        1.09
  WS02006249           JUNCTION     0.68     1.09     8.69     0  02:59        1.09
  WS02006239           JUNCTION     0.81     1.35     8.55     0  03:03        1.34
  WS02006251           JUNCTION     0.67     1.23     8.90     0  07:08        1.13
  WS02006252           JUNCTION     0.40     0.77     9.01     0  07:08        0.68
  WS02006253           JUNCTION     0.70     1.29     8.94     0  02:59        1.16
  WS02006256           JUNCTION     1.76     2.35     9.28     0  00:00        2.35
  WS02004138           JUNCTION     0.19     0.20     7.45     0  00:00        0.19
  WS02004139           JUNCTION     0.72     0.77     5.68     0  03:09        0.77
  WS02004407           JUNCTION     0.26     0.37     6.68     0  03:03        0.37
  WS02006228           JUNCTION     0.90     1.44     8.09     0  03:02        1.43
  WS02006229           JUNCTION     0.90     1.49     8.18     0  03:02        1.48
  WS02006280           JUNCTION     0.07     0.20     8.47     0  03:02        0.20
  WS02006284           JUNCTION     0.37     0.56     8.96     0  03:02        0.56
  WS02006287           JUNCTION     0.10     0.30     9.25     0  03:01        0.30
  WSF200               JUNCTION     0.26     0.40     5.64     0  03:05        0.40
  HS02004901           JUNCTION     0.13     0.29    10.12     0  03:01        0.29
  HS02004881           JUNCTION     0.01     0.04     9.07     0  03:01        0.04
  HS02004876           JUNCTION     0.04     0.12     9.15     0  03:01        0.12
  HS02004870           JUNCTION     0.02     0.07     9.35     0  03:01        0.07
  HS02004862           JUNCTION     0.02     0.08     9.46     0  03:01        0.08
  HS02004856           JUNCTION     0.08     0.13     9.55     0  03:01        0.13
  HS02004852           JUNCTION     0.01     0.05     9.56     0  03:01        0.05
  HS02004848           JUNCTION     0.01     0.05     9.65     0  03:01        0.05
  HS02004842           JUNCTION     0.34     0.38     9.65     0  03:01        0.38
  HS02004837           JUNCTION     0.03     0.07     9.65     0  03:01        0.07
  HS02004830           JUNCTION     0.04     0.08     9.55     0  03:01        0.08
  HS02004824           JUNCTION     0.02     0.06     9.47     0  03:01        0.06
  HS02004817           JUNCTION     0.44     0.61     9.45     0  03:01        0.61
  HS02004807           JUNCTION     0.13     0.28     9.45     0  03:01        0.28
  HS02004802           JUNCTION     0.17     0.31     9.44     0  03:01        0.31
  HS02004799           JUNCTION     0.12     0.35     9.56     0  03:01        0.35
  HS02004792           JUNCTION     0.04     0.15     9.67     0  03:01        0.15
  HS02004788           JUNCTION     0.03     0.11    10.01     0  03:01        0.11
  HS02004785           JUNCTION     0.05     0.18    10.09     0  03:01        0.18
  HS02004777           JUNCTION     0.15     0.31    10.11     0  03:01        0.31
  HS02004770           JUNCTION     0.12     0.29    10.12     0  03:01        0.29
  HS02004480           JUNCTION     0.09     0.28     9.52     0  03:01        0.28
  HS02004479           JUNCTION     0.12     0.32     9.52     0  03:01        0.32
  HS02004478           JUNCTION     0.06     0.20     9.42     0  03:01        0.20
  YS02001745           JUNCTION     0.69     0.92     8.44     0  03:01        0.92
  YS02001748           JUNCTION     1.08     1.55     8.63     0  02:27        1.35
  YS02001751           JUNCTION     1.27     1.56     8.44     0  02:57        1.54
  YS02001754           JUNCTION     1.52     1.83     8.44     0  02:58        1.81
  YS02001762           JUNCTION     1.72     2.04     8.44     0  02:57        2.02
  YS02001765           JUNCTION     1.67     1.99     8.44     0  02:58        1.96
  YS02001767           JUNCTION     1.63     1.94     8.43     0  02:56        1.92
  YS02001770           JUNCTION     1.63     1.92     8.42     0  02:58        1.91
  YS02001774           JUNCTION     1.70     1.98     8.40     0  03:00        1.97
  YS02001779           JUNCTION     1.44     1.68     8.37     0  02:36        1.68
  YS02001882           JUNCTION     0.53     1.62     8.33     0  02:59        1.61
  YS02001884           JUNCTION     0.62     1.72     8.34     0  03:00        1.71
  YS02001759           JUNCTION     1.75     2.08     8.44     0  02:58        2.05
  YS02001887           JUNCTION     0.70     1.80     8.34     0  03:00        1.79
  YS02001890           JUNCTION     0.73     1.81     8.32     0  02:44        1.80
  YS02001898           JUNCTION     0.50     1.56     8.29     0  02:58        1.55
  YS02001901           JUNCTION     0.62     1.67     8.28     0  02:58        1.67
  YS02001904           JUNCTION     0.60     1.64     8.27     0  03:00        1.63
  YS02001907           JUNCTION     0.93     1.96     8.25     0  02:44        1.96
  YS02001910           JUNCTION     0.72     1.78     8.29     0  02:46        1.77
  YS02001915           JUNCTION     0.51     1.59     8.31     0  02:45        1.57
  YS02001918           JUNCTION     0.27     1.26     8.33     0  02:45        1.23
  YS02001619           JUNCTION     1.23     1.58     8.51     0  02:27        1.47
  YS02001629           JUNCTION     1.58     1.85     8.40     0  02:27        1.84
  YS02001641           JUNCTION     1.68     1.94     8.38     0  02:35        1.93
  YS02001644           JUNCTION     1.68     1.92     8.35     0  02:35        1.92
  YS02001652           JUNCTION     1.53     2.16     8.76     0  03:33        1.93
  YS02001655           JUNCTION     1.29     2.17     9.02     0  03:33        1.77
  YS02001920           JUNCTION     0.37     1.34     8.35     0  02:45        1.30
  YS02001923           JUNCTION     0.21     1.10     8.36     0  02:45        1.06
  YS02001926           JUNCTION     0.27     0.91     8.36     0  02:45        0.91
  YS02001929           JUNCTION     0.15     0.69     8.38     0  02:46        0.66
  YS02001658           JUNCTION     1.03     2.11     9.25     0  03:32        1.54
  YS02001661           JUNCTION     0.80     2.26     9.66     0  03:33        1.29
  YS02001664           JUNCTION     0.33     0.57     8.50     0  03:38        0.56
  YS02001622           JUNCTION     1.25     1.56     8.46     0  02:27        1.49
  YS02001633           JUNCTION     1.67     1.95     8.40     0  02:35        1.94
  YS02001649           JUNCTION     1.73     2.05     8.44     0  02:37        2.05
  YS02001757           JUNCTION     1.85     2.17     8.44     0  02:57        2.16
  YS02001895           JUNCTION     0.49     1.56     8.31     0  02:59        1.55
  YS02001625           JUNCTION     1.54     1.78     8.38     0  02:27        1.78
  YS02163301           JUNCTION     1.61     1.89     8.40     0  02:36        1.88
  YS02163601           JUNCTION     1.72     1.99     8.39     0  02:35        1.98
  YS02164001           JUNCTION     1.66     1.92     8.38     0  02:35        1.91
  YS02001647           JUNCTION     1.51     1.80     8.41     0  03:37        1.79
  YSB1154              JUNCTION     0.26     0.47     9.52     0  03:01        0.47
  YSB6556              JUNCTION     0.15     0.35     9.52     0  03:01        0.35
  YSB1174              JUNCTION     0.21     0.41     9.52     0  03:01        0.41
  YSB1171              JUNCTION     0.41     0.62     9.52     0  03:01        0.62
  YS02006553           JUNCTION     0.93     1.97     8.25     0  02:59        1.96
  YS02006561           JUNCTION     0.30     1.08     7.74     0  02:44        1.07
  YS02006556           JUNCTION     0.89     1.92     8.23     0  02:59        1.91
  YS02006558           JUNCTION     0.94     1.96     8.23     0  02:58        1.96
  YS02001783           JUNCTION     0.49     1.47     7.61     0  02:44        1.46
  YS02001784           JUNCTION     0.51     1.56     7.63     0  02:34        1.40
  YS02001786           JUNCTION     0.44     1.77     7.80     0  02:34        1.25
  YS02001788           JUNCTION     0.36     1.52     7.49     0  02:34        1.12
  YS02001790           JUNCTION     0.44     1.71     7.36     0  02:34        1.29
  YS02001791           JUNCTION     0.37     1.53     7.00     0  02:33        1.26
  YS02001793           JUNCTION     0.45     1.92     6.75     0  02:34        1.80
  WSC                  OUTFALL      0.37     0.45     1.12     0  03:09        0.45
  JK-storage           STORAGE      1.97     5.80     6.60     0  02:34        5.80
  CC-storage           STORAGE      1.10     1.41     8.41     0  03:06        1.41
  XR-storage           STORAGE      6.36     7.72     5.72     0  02:57        7.72
  
  
  *******************
  Node Inflow Summary
  *******************
  
  -------------------------------------------------------------------------------------------------
                                  Maximum  Maximum                  Lateral       Total        Flow
                                  Lateral    Total  Time of Max      Inflow      Inflow     Balance
                                   Inflow   Inflow   Occurrence      Volume      Volume       Error
  Node                 Type           LPS      LPS  days hr:min    10^6 ltr    10^6 ltr     Percent
  -------------------------------------------------------------------------------------------------
  WS02001211           JUNCTION      7.35   389.48     0  03:17       0.207        10.1       0.398
  WS02001212           JUNCTION      0.00   391.48     0  03:16           0        10.1       0.227
  WS02001213           JUNCTION      0.00   393.20     0  03:16           0        10.1       0.295
  WS02003069           JUNCTION      0.32  1216.95     0  03:07     0.00902        21.3       0.165
  WS02003072           JUNCTION      0.00  1216.94     0  03:07           0        21.3       0.196
  WS02003073           JUNCTION      1.82  1218.93     0  03:08      0.0514        21.3       0.224
  WS02003060           JUNCTION     16.53  1216.50     0  03:07       0.466        21.4       0.157
  WS02003066           JUNCTION      0.00   828.00     0  03:05           0        10.9       0.044
  WS02003059           JUNCTION      0.00   395.46     0  03:15           0          10       0.398
  WS02003067           JUNCTION      0.00   827.68     0  03:05           0        10.9       0.090
  WS02004401           JUNCTION      0.00   832.16     0  03:03           0        11.2       0.211
  WS02004402           JUNCTION      0.00   834.38     0  03:03           0        11.1       0.197
  WS02004403           JUNCTION      0.00   831.93     0  03:03           0        11.1       0.177
  WS02004404           JUNCTION      0.16   832.45     0  03:03     0.00457        11.1       0.132
  WS02004406           JUNCTION      0.00   831.87     0  03:03           0        11.1       0.319
  WS02004409           JUNCTION      0.00   831.34     0  03:03           0          11       0.165
  WS02004410           JUNCTION      0.00   828.99     0  03:04           0          11       0.184
  WS02004411           JUNCTION      0.00   827.94     0  03:04           0          11       0.187
  WS02004412           JUNCTION      0.00   827.58     0  03:04           0          11       0.199
  WS02004413           JUNCTION      0.00   827.59     0  03:05           0        10.9       0.292
  WS02004405           JUNCTION      0.04   832.51     0  03:03     0.00107        11.1       0.197
  WS02006109           JUNCTION      1.23   818.91     0  03:02      0.0347        11.2       0.205
  WS02006110           JUNCTION      0.00   818.73     0  03:02           0        11.2       0.193
  WS02006111           JUNCTION      0.00   817.68     0  03:03           0        11.2       0.043
  WS02006112           JUNCTION     16.72   831.30     0  03:03      0.0747        11.2       0.267
  WS02006113           JUNCTION      0.00   818.69     0  03:02           0        11.2       0.107
  WS02006115           JUNCTION      0.00   831.19     0  03:03           0        11.2       0.209
  WS02006116           JUNCTION      0.00   831.71     0  03:03           0        11.2       0.198
  WS02006230           JUNCTION     10.28   540.12     0  06:22        0.29        9.07       0.185
  WS02006231           JUNCTION      0.00   529.99     0  06:22           0        8.79       0.128
  WS02006232           JUNCTION      0.00   530.89     0  06:22           0         8.8       0.209
  WS02006234           JUNCTION      0.00   532.25     0  06:22           0        8.82       0.120
  WS02006235           JUNCTION      0.00   532.36     0  04:52           0        8.86       0.135
  WS02006238           JUNCTION      0.00   419.16     0  07:20           0        5.77       0.146
  WS02006240           JUNCTION      0.00   417.50     0  07:20           0        5.75       0.289
  WS02006242           JUNCTION      0.00   417.16     0  07:20           0        5.76       0.328
  WS02006243           JUNCTION      0.00   416.94     0  04:30           0        5.77       0.228
  WS02006245           JUNCTION      0.00   416.82     0  04:30           0        5.78       0.235
  WS02006247           JUNCTION      0.00   416.79     0  07:20           0        5.79       0.196
  WS02006248           JUNCTION      0.00   416.79     0  07:20           0         5.8       0.171
  WS02006249           JUNCTION      0.00   427.27     0  03:20           0        6.39       0.238
  WS02006239           JUNCTION      0.00   418.77     0  07:20           0        5.76       0.214
  WS02006251           JUNCTION      0.08   427.03     0  03:20     0.00217        6.44       0.260
  WS02006252           JUNCTION      0.00   400.00     0  03:20           0           6       0.009
  WS02006253           JUNCTION      1.99    86.08     0  03:01     0.00928       0.449       2.651
  WS02006256           JUNCTION      0.00   983.00     0  00:00           0        10.1      -0.002
  WS02004138           JUNCTION      0.00   380.00     0  00:00           0        9.98       0.065
  WS02004139           JUNCTION      0.32   396.51     0  00:00     0.00905        9.98       0.452
  WS02004407           JUNCTION      0.00   831.90     0  03:03           0          11       0.076
  WS02006228           JUNCTION      0.00   817.63     0  03:02           0        11.2       0.159
  WS02006229           JUNCTION      0.00   818.43     0  03:02           0        11.2       0.122
  WS02006280           JUNCTION      0.00   413.65     0  03:02           0        2.17       0.007
  WS02006284           JUNCTION      0.10   413.60     0  03:02      0.0027        2.17       0.041
  WS02006287           JUNCTION      0.00   413.25     0  03:01           0        2.17       0.033
  WSF200               JUNCTION      0.00   828.11     0  03:05           0        10.9       0.042
  HS02004901           JUNCTION     20.36    20.36     0  03:01      0.0902      0.0904       1.990
  HS02004881           JUNCTION      7.95    84.19     0  03:01      0.0378        0.41       0.114
  HS02004876           JUNCTION     14.96    76.76     0  03:01      0.0728       0.373       0.148
  HS02004870           JUNCTION     14.89    62.16     0  03:01      0.0716         0.3       0.037
  HS02004862           JUNCTION     15.28    47.69     0  03:01      0.0788       0.229       0.077
  HS02004856           JUNCTION     11.18    32.73     0  03:01      0.0539       0.152       0.963
  HS02004852           JUNCTION      0.00    21.94     0  03:01           0      0.0979       0.059
  HS02004848           JUNCTION     34.61    34.61     0  03:01       0.174       0.174       0.028
  HS02004842           JUNCTION      0.00    12.41     0  03:01           0      0.0895      16.997
  HS02004837           JUNCTION     31.84    43.94     0  03:01       0.303        0.38       0.215
  HS02004830           JUNCTION      0.15    43.86     0  03:01     0.00423        0.37       0.334
  HS02004824           JUNCTION     42.39    85.90     0  03:01       0.225       0.594       0.091
  HS02004817           JUNCTION      0.60    86.29     0  03:01      0.0169        0.61       2.809
  HS02004807           JUNCTION     27.35   112.32     0  03:01       0.131       0.726       0.604
  HS02004802           JUNCTION      0.00   111.38     0  03:01           0       0.723       0.549
  HS02004799           JUNCTION     22.08   258.95     0  03:01       0.107        1.24       0.223
  HS02004792           JUNCTION    102.90   238.02     0  03:01        0.47        1.14       0.036
  HS02004788           JUNCTION     34.16   135.95     0  03:01       0.199       0.669       0.059
  HS02004785           JUNCTION      0.15   103.52     0  03:01     0.00423       0.471       0.106
  HS02004777           JUNCTION      0.03   104.16     0  03:01    0.000846       0.472       1.115
  HS02004770           JUNCTION     85.35   105.10     0  03:01       0.385       0.473       0.659
  HS02004480           JUNCTION      0.00   302.47     0  03:01           0        1.46       0.076
  HS02004479           JUNCTION      0.00    44.90     0  03:02           0       0.232       0.317
  HS02004478           JUNCTION      0.00   413.12     0  03:01           0        2.17       0.014
  YS02001745           JUNCTION    336.84   392.56     0  02:26        2.69         2.7       0.312
  YS02001748           JUNCTION      0.04   558.84     0  02:26     0.00127        2.69       0.770
  YS02001751           JUNCTION      0.01   354.99     0  02:17     0.00031        2.66       0.898
  YS02001754           JUNCTION      0.26   343.43     0  03:01     0.00733        2.64       0.942
  YS02001762           JUNCTION      0.00   292.98     0  02:38           0        2.03       1.050
  YS02001765           JUNCTION      0.00   293.33     0  02:38           0        2.03       1.208
  YS02001767           JUNCTION      0.54   293.52     0  02:38      0.0151        2.05       1.752
  YS02001770           JUNCTION    415.94   565.33     0  03:01        3.01        3.26       0.971
  YS02001774           JUNCTION      0.00   565.78     0  03:01           0        1.45       1.728
  YS02001779           JUNCTION      0.01   565.91     0  03:01    0.000141        1.41       1.075
  YS02001882           JUNCTION      0.00    40.41     0  02:36           0      0.0194      13.535
  YS02001884           JUNCTION      0.00    73.71     0  02:36           0      0.0561      12.257
  YS02001759           JUNCTION    399.49   574.90     0  02:38        2.78        4.53       0.509
  YS02001887           JUNCTION    494.68   494.99     0  03:01        3.19        3.22       0.266
  YS02001890           JUNCTION      0.00   495.27     0  03:00           0        3.18       0.293
  YS02001898           JUNCTION      0.00   494.50     0  03:00           0        3.16       0.095
  YS02001901           JUNCTION      0.00   494.49     0  03:01           0        3.16       0.224
  YS02001904           JUNCTION      0.00   495.40     0  03:01           0        3.16       0.201
  YS02001907           JUNCTION      0.00   942.53     0  03:00           0        7.02       0.348
  YS02001910           JUNCTION      0.00   451.54     0  03:00           0        3.87       0.307
  YS02001915           JUNCTION    296.36   450.78     0  03:00        2.25         3.9       0.157
  YS02001918           JUNCTION      0.00   211.96     0  02:46           0        1.66       0.115
  YS02001619           JUNCTION    290.53   290.53     0  03:01        2.24        2.24       0.543
  YS02001629           JUNCTION      0.00   205.17     0  02:17           0        1.69       1.718
  YS02001641           JUNCTION      0.00   398.71     0  02:34           0        4.25       0.489
  YS02001644           JUNCTION    321.01  1356.51     0  03:01        2.59        8.94       0.288
  YS02001652           JUNCTION      0.00   381.36     0  03:01           0        2.36       1.002
  YS02001655           JUNCTION      0.15   382.67     0  02:18     0.00434        2.38       1.049
  YS02001920           JUNCTION      2.87   211.33     0  02:46      0.0809        1.64       0.186
  YS02001923           JUNCTION      0.04   230.71     0  02:47     0.00106        1.56       0.050
  YS02001926           JUNCTION      0.05   185.58     0  02:46     0.00147        1.56       0.210
  YS02001929           JUNCTION    151.13   151.13     0  03:01        1.56        1.56       0.036
  YS02001658           JUNCTION      0.00   623.85     0  02:23           0        2.42       0.919
  YS02001661           JUNCTION      0.00   621.35     0  02:38           0        2.68      -0.770
  YS02001664           JUNCTION    361.21   361.21     0  03:01        2.38        2.66       0.149
  YS02001622           JUNCTION      0.00   291.07     0  03:01           0        2.22       1.449
  YS02001633           JUNCTION    326.74   397.61     0  02:35        2.66        4.31       0.748
  YS02001649           JUNCTION      0.00   827.37     0  02:35           0        5.41       0.691
  YS02001757           JUNCTION      0.00  1578.95     0  02:35           0        10.1       0.913
  YS02001895           JUNCTION      0.00   494.53     0  03:01           0        3.17       0.168
  YS02001625           JUNCTION      0.00   291.01     0  03:01           0        2.19       1.804
  YS02163301           JUNCTION      0.00   204.49     0  02:27           0        1.67       1.463
  YS02163601           JUNCTION      0.11   397.50     0  02:34      0.0031        4.27       0.702
  YS02164001           JUNCTION      0.00   398.54     0  02:34           0        4.25       0.470
  YS02001647           JUNCTION      0.00   656.87     0  03:01           0        4.37       0.644
  YSB1154              JUNCTION     26.18    26.18     0  03:01       0.129        0.13       1.130
  YSB6556              JUNCTION      0.00    25.83     0  03:01           0        0.13       0.969
  YSB1174              JUNCTION     20.52    20.52     0  03:01      0.0948      0.0953       1.368
  YSB1171              JUNCTION      0.00    45.31     0  03:01           0       0.231       2.821
  YS02006553           JUNCTION      0.00   704.19     0  03:31           0        6.56       0.240
  YS02006561           JUNCTION      0.00   982.41     0  03:00           0        9.44       0.008
  YS02006556           JUNCTION      0.00   703.36     0  03:31           0        6.57       0.170
  YS02006558           JUNCTION    433.40   983.50     0  02:59        2.93        9.47       0.057
  YS02001783           JUNCTION      0.00   982.48     0  02:59           0        9.44       0.024
  YS02001784           JUNCTION      1.06   983.44     0  03:00      0.0299        9.47       0.038
  YS02001786           JUNCTION      0.06   983.46     0  02:59     0.00159        9.47       0.037
  YS02001788           JUNCTION      0.07   983.56     0  02:59       0.002        9.47       0.023
  YS02001790           JUNCTION      0.15   984.03     0  02:59     0.00437        9.47       0.008
  YS02001791           JUNCTION      0.00   983.98     0  02:59           0        9.47       0.007
  YS02001793           JUNCTION      0.00   984.05     0  02:59           0         9.5      -0.025
  WSC                  OUTFALL       0.00  1219.29     0  03:09           0        21.3       0.000
  JK-storage           STORAGE       0.00  1135.95     0  02:04           0        9.65     -12.459
  CC-storage           STORAGE       0.00  1579.36     0  02:35           0        9.13       0.640
  XR-storage           STORAGE     844.76   844.76     0  03:01        11.8        12.4      -0.004
  
  
  **********************
  Node Surcharge Summary
  **********************
  
  Surcharging occurs when water rises above the top of the highest conduit.
  ---------------------------------------------------------------------
                                               Max. Height   Min. Depth
                                   Hours       Above Crown    Below Rim
  Node                 Type      Surcharged         Meters       Meters
  ---------------------------------------------------------------------
  WS02004401           JUNCTION        0.30          0.137        1.523
  WS02004402           JUNCTION        0.35          0.136        1.604
  WS02004403           JUNCTION        0.36          0.127        1.903
  WS02004404           JUNCTION        0.77          0.176        2.604
  WS02004406           JUNCTION        0.56          0.116        2.334
  WS02004405           JUNCTION        0.65          0.155        2.645
  WS02006109           JUNCTION        5.16          0.491        1.329
  WS02006110           JUNCTION        2.94          0.239        1.611
  WS02006112           JUNCTION        3.48          0.418        1.262
  WS02006115           JUNCTION        0.16          0.080        2.170
  WS02006116           JUNCTION        0.19          0.086        2.204
  WS02006230           JUNCTION        2.44          0.443        1.127
  WS02006231           JUNCTION        2.81          0.507        1.023
  WS02006232           JUNCTION        4.92          0.662        0.818
  WS02006234           JUNCTION        3.87          0.598        0.642
  WS02006235           JUNCTION        4.41          0.657        0.633
  WS02006238           JUNCTION        4.54          0.671        0.759
  WS02006240           JUNCTION        4.23          0.570        0.820
  WS02006242           JUNCTION        4.45          0.601        0.219
  WS02006243           JUNCTION        3.85          0.496        0.274
  WS02006245           JUNCTION        3.73          0.458        0.392
  WS02006247           JUNCTION        3.78          0.459        0.301
  WS02006248           JUNCTION        3.54          0.374        0.006
  WS02006249           JUNCTION        3.64          0.390        0.000
  WS02006239           JUNCTION        4.25          0.606        0.684
  WS02006251           JUNCTION        2.22          0.197        0.983
  WS02006252           JUNCTION        4.04          0.366        0.734
  WS02006253           JUNCTION        2.27          0.252        2.228
  WS02006256           JUNCTION        6.71          2.050        0.000
  WS02006228           JUNCTION        5.13          0.613        1.587
  YS02001748           JUNCTION        5.12          0.471        0.719
  YS02001751           JUNCTION        5.48          0.560        0.640
  YS02001754           JUNCTION        5.69          0.784        0.366
  YS02001762           JUNCTION        5.87          1.039        0.111
  YS02001765           JUNCTION        5.84          0.986        0.114
  YS02001767           JUNCTION        5.81          0.938        0.092
  YS02001770           JUNCTION        5.80          0.894        0.026
  YS02001774           JUNCTION        5.86          0.981        0.069
  YS02001779           JUNCTION        5.68          0.680        0.000
  YS02001882           JUNCTION        0.90          0.616        0.214
  YS02001884           JUNCTION        0.93          0.659        0.211
  YS02001759           JUNCTION        5.89          1.076        0.134
  YS02001887           JUNCTION        0.99          0.747        0.203
  YS02001890           JUNCTION        1.02          0.760        0.000
  YS02001898           JUNCTION        0.86          0.529        0.211
  YS02001901           JUNCTION        0.96          0.673        0.197
  YS02001904           JUNCTION        0.94          0.637        0.213
  YS02001907           JUNCTION        1.77          0.950        0.000
  YS02001910           JUNCTION        1.06          0.778        0.322
  YS02001915           JUNCTION        0.89          0.587        0.413
  YS02001918           JUNCTION        0.71          0.261        0.549
  YS02001619           JUNCTION        5.47          0.578        0.032
  YS02001629           JUNCTION        5.48          0.470        0.000
  YS02001641           JUNCTION        5.85          0.939        0.161
  YS02001644           JUNCTION        5.85          0.920        0.000
  YS02001652           JUNCTION        5.73          1.130        0.000
  YS02001655           JUNCTION        5.50          1.166        0.034
  YS02001920           JUNCTION        0.74          0.340        0.800
  YS02001658           JUNCTION        5.21          1.111        0.189
  YS02001661           JUNCTION        0.18          1.187        0.203
  YS02001622           JUNCTION        5.51          0.556        0.064
  YS02001633           JUNCTION        5.83          0.927        0.133
  YS02001649           JUNCTION        5.87          1.050        0.000
  YS02001757           JUNCTION        5.98          1.175        0.035
  YS02001895           JUNCTION        0.88          0.564        0.186
  YS02001625           JUNCTION        5.76          0.780        0.000
  YS02163301           JUNCTION        5.81          0.885        0.145
  YS02163601           JUNCTION        5.87          0.992        0.088
  YS02164001           JUNCTION        5.84          0.920        0.180
  YS02001647           JUNCTION        5.75          0.801        0.099
  YS02006553           JUNCTION        1.86          0.965        0.225
  YS02006561           JUNCTION        0.77          0.281        0.869
  YS02006556           JUNCTION        1.30          0.882        0.468
  YS02006558           JUNCTION        1.26          0.861        0.539
  YS02001783           JUNCTION        1.04          0.668        0.932
  YS02001784           JUNCTION        1.02          0.760        0.730
  YS02001786           JUNCTION        0.97          0.967        0.463
  YS02001788           JUNCTION        0.91          0.716        0.764
  YS02001790           JUNCTION        1.46          0.912        0.245
  YS02001791           JUNCTION        1.54          0.735        1.185
  YS02001793           JUNCTION        1.79          0.916        1.684
  
  
  *********************
  Node Flooding Summary
  *********************
  
  Flooding refers to all water that overflows a node, whether it ponds or not.
  --------------------------------------------------------------------------
                                                             Total   Maximum
                                 Maximum   Time of Max       Flood    Ponded
                        Hours       Rate    Occurrence      Volume     Depth
  Node                 Flooded       LPS   days hr:min    10^6 ltr    Meters
  --------------------------------------------------------------------------
  WS02006249              2.15    130.80      0  03:20       0.578     0.000
  WS02006256              3.98    978.40      0  00:00       6.959     0.000
  YS02001779              2.24    565.21      0  03:01       1.393     0.000
  YS02001890              0.01      0.93      0  03:00       0.000     0.000
  YS02001907              0.58    393.58      0  03:01       0.442     0.000
  YS02001629              0.01      9.87      0  02:27       0.000     0.000
  YS02001644              3.38   1355.84      0  03:01       6.660     0.000
  YS02001652              0.01      3.81      0  03:33       0.000     0.000
  YS02001649              0.03     32.14      0  03:32       0.001     0.000
  YS02001625              1.21    237.05      0  03:01       0.465     0.000
  JK-storage              0.56    815.40      0  02:40       0.734     0.000
  XR-storage              3.02    464.76      0  03:01       1.818     0.000
  
  
  **********************
  Storage Volume Summary
  **********************
  
  --------------------------------------------------------------------------------------------------
                         Average     Avg  Evap Exfil       Maximum     Max    Time of Max    Maximum
                          Volume    Pcnt  Pcnt  Pcnt        Volume    Pcnt     Occurrence    Outflow
  Storage Unit           1000 m3    Full  Loss  Loss       1000 m3    Full    days hr:min        LPS
  --------------------------------------------------------------------------------------------------
  JK-storage               0.099      34     0     0         0.291     100       0  02:34     983.00
  CC-storage               3.072      20     0     0         3.916      25       0  03:06     400.00
  XR-storage               0.763      82     0     0         0.926     100       0  02:57     380.00
  
  
  ***********************
  Outfall Loading Summary
  ***********************
  
  ---------------------------------------------------------------------------------------------------------------------------------
                         Flow       Avg       Max       Total         Total         Total         Total         Total         Total
                         Freq      Flow      Flow      Volume           COD            SS            TN            TP         NH4-N
  Outfall Node           Pcnt       LPS       LPS    10^6 ltr            kg            kg            kg            kg            kg
  ---------------------------------------------------------------------------------------------------------------------------------
  WSC                   99.98    854.14   1219.29      21.265      2432.644      4165.302       154.027        18.071        93.106
  ---------------------------------------------------------------------------------------------------------------------------------
  System                99.98    854.14   1219.29      21.265      2432.644      4165.302       154.027        18.071        93.106
  
  
  ********************
  Link Flow Summary
  ********************
  
  -----------------------------------------------------------------------------
                                 Maximum  Time of Max   Maximum    Max/    Max/
                                  |Flow|   Occurrence   |Veloc|    Full    Full
  Link                 Type          LPS  days hr:min     m/sec    Flow   Depth
  -----------------------------------------------------------------------------
  WS02003066WSF200     CONDUIT    828.11     0  03:05      2.94    0.14    0.30
  WS02006287WS02006284 CONDUIT    413.50     0  03:02      2.04    0.19    0.30
  WS02006284WS02006280 CONDUIT    413.65     0  03:02      2.28    0.17    0.28
  WS02006280WS02006229 CONDUIT    413.65     0  03:02      3.63    0.09    0.25
  WS02006229WS02006228 CONDUIT    817.63     0  03:02      1.63    2.71    1.00
  WS02006256WS02006235 CONDUIT    288.60     0  00:00      4.23    3.05    1.00
  WS02006253WS02006251 CONDUIT    110.77     0  02:59      0.60    0.33    1.00
  WS02006252WS02006251 CONDUIT    402.69     0  04:52      3.20    1.48    1.00
  WS02006251WS02006249 CONDUIT    427.27     0  03:20      1.11    1.23    1.00
  WS02006249WS02006248 CONDUIT    416.79     0  07:20      1.13    2.28    1.00
  WS02006248WS02006247 CONDUIT    416.79     0  07:20      1.10    0.91    1.00
  WS02006247WS02006245 CONDUIT    416.82     0  04:30      1.08    3.31    1.00
  WS02006245WS02006243 CONDUIT    416.94     0  04:30      1.08    1.23    1.00
  WS02006243WS02006242 CONDUIT    417.16     0  07:20      1.08    0.89    1.00
  WS02006242WS02006240 CONDUIT    417.50     0  07:20      1.08    1.66    1.00
  WS02006240WS02006239 CONDUIT    418.77     0  07:20      1.09    1.32    1.00
  WS02006239WS02006238 CONDUIT    419.16     0  07:20      1.09    1.34    1.00
  WS02006238WS02006235 CONDUIT    420.74     0  07:20      1.46    0.94    1.00
  WS02006235WS02006234 CONDUIT    532.25     0  06:22      1.38    5.62    1.00
  WS02006234WS02006232 CONDUIT    530.89     0  06:22      1.39    1.07    1.00
  WS02006232WS02006231 CONDUIT    529.99     0  06:22      1.38    1.11    1.00
  WS02006231WS02006230 CONDUIT    529.85     0  06:22      1.38    8.04    1.00
  WS02006230WS02006229 CONDUIT    543.74     0  06:22      1.41   12.10    1.00
  WS02006228WS02006109 CONDUIT    817.68     0  03:02      1.63    3.57    1.00
  WS02006116WS02004401 CONDUIT    832.16     0  03:03      1.06    1.15    1.00
  WS02006115WS02006116 CONDUIT    831.71     0  03:03      1.06    1.07    1.00
  WS02006113WS02006111 CONDUIT    817.68     0  03:03      2.58    0.98    0.81
  WS02006112WS02006115 CONDUIT    831.19     0  03:03      1.06    0.49    1.00
  WS02006111WS02006112 CONDUIT    819.20     0  03:03      1.73    0.39    0.90
  WS02006110WS02006113 CONDUIT    818.69     0  03:02      1.74    0.74    0.91
  WS02006109WS02006110 CONDUIT    818.73     0  03:02      1.63    1.57    1.00
  WS02004411WS02004412 CONDUIT    827.58     0  03:04      1.16    1.18    0.85
  WS02004401WS02004402 CONDUIT    834.38     0  03:03      1.06    1.00    1.00
  WS02004413WS02003067 CONDUIT    827.68     0  03:05      1.42    0.35    0.70
  WS02004412WS02004413 CONDUIT    827.59     0  03:05      1.10    0.55    0.91
  WS02004410WS02004411 CONDUIT    827.94     0  03:04      1.15    1.13    0.86
  WS02004409WS02004410 CONDUIT    828.99     0  03:04      1.15    1.07    0.87
  WS02004407WS02004409 CONDUIT    831.34     0  03:03      1.64    0.29    0.62
  WS02004406WS02004407 CONDUIT    831.90     0  03:03      1.45    0.37    0.69
  WS02004405WS02004406 CONDUIT    831.87     0  03:03      1.06    1.64    1.00
  WS02004404WS02004405 CONDUIT    832.48     0  03:03      1.06    8.16    1.00
  WS02004403WS02004404 CONDUIT    832.29     0  03:03      1.06    0.60    1.00
  WS02004402WS02004403 CONDUIT    831.93     0  03:03      1.06    1.20    1.00
  WS02004139WS02001211 CONDUIT    382.13     0  03:17      0.90    0.48    0.63
  WS02004138WS02004139 CONDUIT    396.19     0  00:00      3.65    0.08    0.46
  WS02003067WS02003066 CONDUIT    828.00     0  03:05      1.54    0.27    0.48
  WS02001213WS02003059 CONDUIT    395.46     0  03:15      0.88    0.65    0.84
  WS02001212WS02001213 CONDUIT    393.20     0  03:16      1.32    0.61    0.53
  WS02001211WS02001212 CONDUIT    391.48     0  03:16      0.78    0.30    0.69
  WS02003072WS02003073 CONDUIT   1217.11     0  03:08      1.90    2.63    0.55
  WS02003069WS02003072 CONDUIT   1216.94     0  03:07      1.76    0.59    0.59
  WS02003060WS02003069 CONDUIT   1216.63     0  03:07      1.98    0.48    0.53
  WS02003059WS02003060 CONDUIT    398.37     0  03:15      0.95    0.26    0.74
  HS02004901HS02004770 CONDUIT     20.53     0  03:01      0.07    0.08    0.42
  HS02004876HS02004881 CONDUIT     76.55     0  03:01      0.95    0.81    0.12
  HS02004870HS02004876 CONDUIT     61.91     0  03:01      0.65    0.04    0.14
  HS02004842HS02004848 CONDUIT     12.41     0  03:01      0.06    0.01    0.31
  HS02004837HS02004842 CONDUIT     12.98     0  03:02      0.42    0.01    0.32
  HS02004830HS02004837 CONDUIT     43.71     0  03:01      0.57    0.04    0.11
  HS02004824HS02004830 CONDUIT     43.67     0  03:01      0.59    0.06    0.11
  HS02004817HS02004824 CONDUIT     85.69     0  03:01      0.26    0.04    0.48
  HS02004770HS02004777 CONDUIT    104.13     0  03:01      0.35    0.19    0.43
  HS02004799HS02004480 CONDUIT    258.32     0  03:01      0.83    0.33    0.44
  HS02004792HS02004799 CONDUIT    237.07     0  03:01      0.95    0.15    0.36
  HS02004788HS02004792 CONDUIT    135.44     0  03:01      1.06    0.09    0.18
  HS02004785HS02004788 CONDUIT    103.22     0  03:02      0.71    0.78    0.21
  HS02004777HS02004785 CONDUIT    103.37     0  03:01      0.42    0.13    0.35
  HS02004480HS02004478 CONDUIT    302.31     0  03:01      1.26    1.27    0.34
  HS02004479HS02004480 CONDUIT     46.29     0  03:02      0.32    0.04    0.43
  HS02004862HS02004870 CONDUIT     47.43     0  03:01      0.66    0.05    0.10
  HS02004848HS02004852 CONDUIT     21.94     0  03:01      0.45    0.02    0.07
  HS02004856HS02004862 CONDUIT     32.48     0  03:01      0.48    0.03    0.10
  HS02004852HS02004856 CONDUIT     21.86     0  03:02      0.25    0.02    0.13
  HS02004802HS02004478 CONDUIT    111.53     0  03:02      0.45    0.10    0.36
  HS02004478WS02006287 CONDUIT    413.25     0  03:01      1.75    0.12    0.26
  HS02004817HS02004807 CONDUIT     86.14     0  03:01      0.19    0.05    0.63
  HS02004807HS02004802 CONDUIT    111.38     0  03:01      0.38    0.21    0.42
  YS02001759YS02001757 CONDUIT    575.26     0  02:38      0.73    0.41    1.00
  YS02001762YS02001759 CONDUIT    292.32     0  02:38      0.37    0.34    1.00
  YS02001765YS02001762 CONDUIT    292.98     0  02:38      0.37    0.27    1.00
  YS02001770YS02001767 CONDUIT    292.99     0  02:38      0.37    1.16    1.00
  YS02001774YS02001770 CONDUIT    565.78     0  03:01      0.72    0.36    1.00
  YS02001779YS02001774 CONDUIT    565.90     0  03:01      0.72    0.29    1.00
  YS02001649YS02001757 CONDUIT    826.12     0  02:35      1.05    0.50    1.00
  YS02001767YS02001765 CONDUIT    293.33     0  02:38      0.37    0.37    1.00
  YS02006561YS02001783 CONDUIT    982.48     0  02:59      2.15    0.51    1.00
  YS02001783YS02001784 CONDUIT    982.38     0  03:00      1.95    1.35    1.00
  YS02001784YS02001785 CONDUIT    983.41     0  02:59      1.96    2.29    1.00
  YS02001788YS02001790 CONDUIT    983.87     0  02:59      2.44    0.73    1.00
  YS02001790YS02001791 CONDUIT    983.98     0  02:59      2.88    1.07    1.00
  YS02001791YS02001793 CONDUIT    984.05     0  02:59      5.76    0.42    1.00
  YS02001910YS02001907 CONDUIT    451.09     0  03:00      0.57    0.25    1.00
  YS02001786YS02001788 CONDUIT    983.49     0  02:59      2.31    1.89    1.00
  YS02001915YS02001910 CONDUIT    451.54     0  03:00      0.59    0.22    1.00
  YS02001918YS02001915 CONDUIT    248.31     0  03:31      0.44    0.14    1.00
  YS02001923YS02001920 CONDUIT    208.46     0  02:46      0.72    0.09    1.00
  YS02001926YS02001923 CONDUIT    230.67     0  02:47      0.83    0.33    0.89
  YS02001929YS02001926 CONDUIT    185.53     0  02:46      0.89    0.09    0.79
  YS02001920YS02001918 CONDUIT    211.96     0  02:46      0.70    0.21    1.00
  YS02001629YS02163301 CONDUIT    204.49     0  02:27      0.26    0.25    1.00
  YS02001619YS02001622 CONDUIT    291.07     0  03:01      0.61    0.43    1.00
  YS02001622YS02001625 CONDUIT    291.01     0  03:01      0.37    0.16    1.00
  YS02001625YS02001629 CONDUIT    205.17     0  02:17      0.26    0.10    1.00
  YS02163301YS02001633 CONDUIT    206.45     0  02:27      0.26    0.19    1.00
  YS02163601YS02164001 CONDUIT    398.54     0  02:34      0.51    0.35    1.00
  YS02164001YS02001641 CONDUIT    398.71     0  02:34      0.51    0.54    1.00
  YS02001641YS02001644 CONDUIT    399.07     0  02:34      0.51    1.29    1.00
  YS02001647YS02001649 CONDUIT    656.87     0  03:01      0.84    0.35    1.00
  YS02006553YS02006556 CONDUIT    703.36     0  03:31      0.90    0.60    1.00
  YS02006556YS02006558 CONDUIT    704.63     0  03:31      0.90    0.56    1.00
  YSB6556YSB1171       CONDUIT     25.75     0  03:03      0.09    0.03    0.70
  YS02001907YS02006553 CONDUIT    704.19     0  03:31      0.78    0.83    1.00
  YS02006558YS02006561 CONDUIT    982.41     0  03:00      3.47    2.17    1.00
  YS02001633YS02163601 CONDUIT    397.39     0  02:34      0.51    0.42    1.00
  YS02001644YS02001647 CONDUIT    657.34     0  03:01      0.84    0.39    1.00
  YS02001745YS02001748 CONDUIT    558.79     0  02:26      1.47    0.22    0.96
  YS02001748YS02001751 CONDUIT    354.98     0  02:17      1.06    0.18    1.00
  YS02001751YS02001754 CONDUIT    343.17     0  03:01      0.92    0.17    1.00
  YS02001754YS02001757 CONDUIT    342.96     0  03:01      0.44    0.14    1.00
  YS02001882YS02001884 CONDUIT     40.41     0  02:36      0.13    0.05    1.00
  YS02001884YS02001887 CONDUIT     73.71     0  02:36      0.09    0.10    1.00
  YS02001890YS02001895 CONDUIT    494.53     0  03:01      0.63    0.23    1.00
  YS02001895YS02001898 CONDUIT    494.50     0  03:00      0.63    0.86    1.00
  YS02001898YS02001901 CONDUIT    494.49     0  03:01      0.63    0.32    1.00
  YS02001901YS02001904 CONDUIT    495.40     0  03:01      0.63    0.77    1.00
  YS02001904YS02001907 CONDUIT    495.21     0  03:01      0.63    0.17    1.00
  YS02001887YS02001890 CONDUIT    495.27     0  03:00      0.63    0.85    1.00
  YS02001652YS02001649 CONDUIT    382.53     0  03:01      0.63    0.19    1.00
  YS02001655YS02001652 CONDUIT    381.36     0  03:01      0.98    0.19    1.00
  YS02001658YS02001655 CONDUIT    382.51     0  02:18      1.22    0.16    1.00
  YS02001661YS02001658 CONDUIT    623.85     0  02:23      1.55    0.24    1.00
  YS02001664YS02001661 CONDUIT    621.35     0  02:38      1.43    0.19    0.77
  YSB1154YSB6556       CONDUIT     25.83     0  03:01      0.17    0.05    0.59
  YSB1174YSB1171       CONDUIT     20.15     0  03:01      0.07    0.03    0.70
  YSB1171HS02004479    CONDUIT     44.90     0  03:02      0.54    0.03    0.55
  HS02004881HS02006253 CONDUIT     84.17     0  03:01      2.15    0.02    0.53
  YS02001793JiankangQianchi CONDUIT   1135.95     0  02:04     17.53    0.09    1.00
  YS02001757CaochengTiaoxuchi CONDUIT   1579.36     0  02:35      2.02    0.69    1.00
  WSF200WS02003060     CONDUIT    828.44     0  03:05      1.85    0.18    0.42
  1                    CONDUIT   1219.29     0  03:09      3.51    0.42    0.46
  CC-Pump-1            PUMP       200.00     0  03:00              1.00
  CC-Pump-2            PUMP       200.00     0  03:20              1.00
  JK-Pump-1            PUMP       300.00     0  00:00              1.00
  JK-Pump-2            PUMP       683.00     0  00:00              1.00
  XR-Pump-1            PUMP        95.00     0  00:00              1.00
  XR-Pump-2            PUMP        95.00     0  00:00              1.00
  XR-Pump-3            PUMP        95.00     0  00:00              1.00
  XR-Pump-4            PUMP        95.00     0  00:00              1.00
  
  
  ***************************
  Flow Classification Summary
  ***************************
  
  -------------------------------------------------------------------------------------
                      Adjusted    ---------- Fraction of Time in Flow Class ---------- 
                       /Actual         Up    Down  Sub   Sup   Up    Down  Norm  Inlet 
  Conduit               Length    Dry  Dry   Dry   Crit  Crit  Crit  Crit  Ltd   Ctrl  
  -------------------------------------------------------------------------------------
  WS02003066WSF200        1.00   0.01  0.07  0.00  0.00  0.92  0.00  0.00  0.35  0.00
  WS02006287WS02006284    1.00   0.03  0.02  0.00  0.62  0.33  0.00  0.00  0.62  0.00
  WS02006284WS02006280    1.00   0.04  0.00  0.00  0.00  0.00  0.00  0.96  0.00  0.00
  WS02006280WS02006229    1.00   0.04  0.00  0.00  0.00  0.02  0.00  0.94  0.02  0.00
  WS02006229WS02006228    1.00   0.00  0.00  0.00  1.00  0.00  0.00  0.00  0.00  0.00
  WS02006256WS02006235    1.00   0.00  0.00  0.00  1.00  0.00  0.00  0.00  0.00  0.00
  WS02006253WS02006251    1.00   0.02  0.02  0.00  0.96  0.00  0.01  0.00  0.00  0.00
  WS02006252WS02006251    1.00   0.20  0.00  0.00  0.26  0.00  0.54  0.00  0.00  0.00
  WS02006251WS02006249    1.00   0.00  0.00  0.00  1.00  0.00  0.00  0.00  0.20  0.00
  WS02006249WS02006248    1.00   0.00  0.01  0.00  0.91  0.00  0.09  0.00  0.00  0.00
  WS02006248WS02006247    1.00   0.01  0.00  0.00  0.98  0.00  0.00  0.02  0.12  0.00
  WS02006247WS02006245    1.00   0.01  0.00  0.00  0.96  0.00  0.00  0.03  0.00  0.00
  WS02006245WS02006243    1.00   0.00  0.00  0.00  0.95  0.00  0.00  0.05  0.01  0.00
  WS02006243WS02006242    1.00   0.00  0.00  0.00  1.00  0.00  0.00  0.00  0.22  0.00
  WS02006242WS02006240    1.00   0.00  0.00  0.00  1.00  0.00  0.00  0.00  0.00  0.00
  WS02006240WS02006239    1.00   0.00  0.00  0.00  0.94  0.00  0.00  0.05  0.01  0.00
  WS02006239WS02006238    1.00   0.00  0.00  0.00  1.00  0.00  0.00  0.00  0.14  0.00
  WS02006238WS02006235    1.00   0.00  0.00  0.00  1.00  0.00  0.00  0.00  0.00  0.00
  WS02006235WS02006234    1.00   0.00  0.00  0.00  0.95  0.00  0.05  0.00  0.00  0.00
  WS02006234WS02006232    1.00   0.00  0.00  0.00  1.00  0.00  0.00  0.00  0.10  0.00
  WS02006232WS02006231    1.00   0.00  0.00  0.00  1.00  0.00  0.00  0.00  0.00  0.00
  WS02006231WS02006230    1.00   0.00  0.00  0.00  0.88  0.00  0.12  0.00  0.00  0.00
  WS02006230WS02006229    1.00   0.00  0.00  0.00  1.00  0.00  0.00  0.00  0.01  0.00
  WS02006228WS02006109    1.00   0.00  0.00  0.00  1.00  0.00  0.00  0.00  0.00  0.00
  WS02006116WS02004401    1.00   0.01  0.00  0.00  0.99  0.00  0.00  0.00  0.01  0.00
  WS02006115WS02006116    1.00   0.01  0.00  0.00  0.97  0.00  0.00  0.02  0.01  0.00
  WS02006113WS02006111    1.00   0.01  0.00  0.00  0.02  0.97  0.00  0.00  0.15  0.00
  WS02006112WS02006115    1.00   0.01  0.00  0.00  0.99  0.00  0.00  0.00  0.00  0.00
  WS02006111WS02006112    1.00   0.01  0.00  0.00  0.99  0.00  0.00  0.00  0.90  0.00
  WS02006110WS02006113    1.00   0.00  0.00  0.00  0.99  0.00  0.00  0.00  0.00  0.00
  WS02006109WS02006110    1.00   0.00  0.00  0.00  0.99  0.00  0.00  0.00  0.00  0.00
  WS02004411WS02004412    1.00   0.06  0.00  0.00  0.94  0.00  0.00  0.00  0.00  0.00
  WS02004401WS02004402    1.00   0.01  0.00  0.00  0.99  0.00  0.00  0.00  0.01  0.00
  WS02004413WS02003067    1.00   0.06  0.01  0.00  0.00  0.00  0.93  0.00  0.00  0.00
  WS02004412WS02004413    1.00   0.06  0.00  0.00  0.94  0.00  0.00  0.00  0.00  0.00
  WS02004410WS02004411    1.00   0.06  0.00  0.00  0.94  0.00  0.00  0.00  0.00  0.00
  WS02004409WS02004410    1.00   0.06  0.00  0.00  0.94  0.00  0.00  0.00  0.00  0.00
  WS02004407WS02004409    1.00   0.06  0.00  0.00  0.94  0.01  0.00  0.00  0.81  0.00
  WS02004406WS02004407    1.00   0.00  0.06  0.00  0.94  0.00  0.00  0.00  0.00  0.00
  WS02004405WS02004406    1.00   0.00  0.00  0.00  1.00  0.00  0.00  0.00  0.02  0.00
  WS02004404WS02004405    1.00   0.00  0.00  0.00  1.00  0.00  0.00  0.00  0.00  0.00
  WS02004403WS02004404    1.00   0.00  0.01  0.00  0.99  0.00  0.00  0.00  0.02  0.00
  WS02004402WS02004403    1.00   0.01  0.00  0.00  0.99  0.00  0.00  0.00  0.00  0.00
  WS02004139WS02001211    1.00   0.00  0.00  0.00  1.00  0.00  0.00  0.00  0.00  0.00
  WS02004138WS02004139    1.00   0.00  0.00  0.00  1.00  0.00  0.00  0.00  1.00  0.00
  WS02003067WS02003066    1.00   0.07  0.00  0.00  0.92  0.00  0.00  0.00  0.00  0.00
  WS02001213WS02003059    1.00   0.00  0.00  0.00  1.00  0.00  0.00  0.00  0.00  0.00
  WS02001212WS02001213    1.00   0.00  0.00  0.00  0.89  0.00  0.10  0.00  0.00  0.00
  WS02001211WS02001212    1.00   0.00  0.00  0.00  1.00  0.00  0.00  0.00  0.00  0.00
  WS02003072WS02003073    1.00   0.00  0.00  0.00  0.00  0.00  0.00  1.00  0.00  0.00
  WS02003069WS02003072    1.00   0.00  0.00  0.00  1.00  0.00  0.00  0.00  0.09  0.00
  WS02003060WS02003069    1.00   0.00  0.00  0.00  0.99  0.01  0.00  0.00  0.07  0.00
  WS02003059WS02003060    1.00   0.00  0.00  0.00  1.00  0.00  0.00  0.00  0.00  0.00
  HS02004901HS02004770    1.00   0.04  0.00  0.00  0.96  0.00  0.00  0.00  0.00  0.00
  HS02004876HS02004881    1.00   0.01  0.00  0.00  0.92  0.07  0.00  0.00  0.00  0.00
  HS02004870HS02004876    1.00   0.00  0.00  0.00  0.99  0.00  0.00  0.00  0.95  0.00
  HS02004842HS02004848    1.00   0.00  0.04  0.00  0.96  0.00  0.00  0.00  0.55  0.00
  HS02004837HS02004842    1.00   0.00  0.00  0.00  1.00  0.00  0.00  0.00  0.11  0.00
  HS02004830HS02004837    1.00   0.00  0.00  0.00  1.00  0.00  0.00  0.00  0.99  0.00
  HS02004824HS02004830    1.00   0.00  0.00  0.00  1.00  0.00  0.00  0.00  0.00  0.00
  HS02004817HS02004824    1.00   0.00  0.00  0.00  1.00  0.00  0.00  0.00  1.00  0.00
  HS02004770HS02004777    1.00   0.00  0.04  0.00  0.96  0.00  0.00  0.00  0.02  0.00
  HS02004799HS02004480    1.00   0.00  0.01  0.00  0.95  0.00  0.03  0.00  0.00  0.00
  HS02004792HS02004799    1.00   0.00  0.00  0.00  1.00  0.00  0.00  0.00  0.98  0.00
  HS02004788HS02004792    1.00   0.00  0.00  0.00  1.00  0.00  0.00  0.00  0.98  0.00
  HS02004785HS02004788    1.00   0.00  0.00  0.00  1.00  0.00  0.00  0.00  0.00  0.00
  HS02004777HS02004785    1.00   0.00  0.00  0.00  1.00  0.00  0.00  0.00  0.12  0.00
  HS02004480HS02004478    1.00   0.04  0.00  0.00  0.68  0.00  0.00  0.28  0.00  0.00
  HS02004479HS02004480    1.00   0.01  0.00  0.00  0.99  0.00  0.00  0.00  0.11  0.00
  HS02004862HS02004870    1.00   0.00  0.00  0.00  1.00  0.00  0.00  0.00  0.03  0.00
  HS02004848HS02004852    1.00   0.04  0.00  0.00  0.96  0.00  0.00  0.00  0.62  0.00
  HS02004856HS02004862    1.00   0.00  0.05  0.00  0.95  0.00  0.00  0.00  0.83  0.00
  HS02004852HS02004856    1.00   0.04  0.00  0.00  0.96  0.00  0.00  0.00  0.85  0.00
  HS02004802HS02004478    1.00   0.04  0.00  0.00  0.96  0.00  0.00  0.00  0.02  0.00
  HS02004478WS02006287    1.00   0.05  0.00  0.00  0.74  0.22  0.00  0.00  0.64  0.00
  HS02004817HS02004807    1.00   0.00  0.04  0.00  0.96  0.00  0.00  0.00  0.01  0.00
  HS02004807HS02004802    1.00   0.04  0.00  0.00  0.96  0.00  0.00  0.00  0.00  0.00
  YS02001759YS02001757    1.00   0.00  0.00  0.00  1.00  0.00  0.00  0.00  0.16  0.00
  YS02001762YS02001759    1.00   0.00  0.00  0.00  1.00  0.00  0.00  0.00  0.03  0.00
  YS02001765YS02001762    1.00   0.00  0.00  0.00  1.00  0.00  0.00  0.00  0.13  0.00
  YS02001770YS02001767    1.00   0.00  0.00  0.00  1.00  0.00  0.00  0.00  0.00  0.00
  YS02001774YS02001770    1.00   0.00  0.04  0.00  0.96  0.00  0.00  0.00  0.02  0.00
  YS02001779YS02001774    1.00   0.00  0.00  0.00  1.00  0.00  0.00  0.00  0.18  0.00
  YS02001649YS02001757    1.00   0.00  0.00  0.00  1.00  0.00  0.00  0.00  0.16  0.00
  YS02001767YS02001765    1.00   0.00  0.00  0.00  1.00  0.00  0.00  0.00  0.00  0.00
  YS02006561YS02001783    1.00   0.05  0.00  0.00  0.24  0.71  0.00  0.00  0.47  0.00
  YS02001783YS02001784    1.00   0.00  0.05  0.00  0.95  0.00  0.00  0.00  0.01  0.00
  YS02001784YS02001785    1.00   0.00  0.00  0.00  1.00  0.00  0.00  0.00  0.17  0.00
  YS02001788YS02001790    1.00   0.00  0.00  0.00  0.26  0.74  0.00  0.00  0.40  0.00
  YS02001790YS02001791    1.00   0.00  0.00  0.00  0.22  0.78  0.00  0.00  0.53  0.00
  YS02001791YS02001793    1.00   0.00  0.00  0.00  0.23  0.77  0.00  0.00  0.03  0.00
  YS02001910YS02001907    1.00   0.00  0.00  0.00  0.99  0.00  0.00  0.01  0.12  0.00
  YS02001786YS02001788    1.00   0.00  0.00  0.00  0.26  0.74  0.00  0.00  0.00  0.00
  YS02001915YS02001910    1.00   0.00  0.00  0.00  0.99  0.01  0.00  0.00  0.15  0.00
  YS02001918YS02001915    1.00   0.00  0.00  0.00  0.99  0.00  0.00  0.00  0.55  0.00
  YS02001923YS02001920    1.00   0.00  0.00  0.00  1.00  0.00  0.00  0.00  0.84  0.00
  YS02001926YS02001923    1.00   0.00  0.02  0.00  0.13  0.00  0.85  0.00  0.00  0.00
  YS02001929YS02001926    1.00   0.00  0.04  0.00  0.96  0.00  0.00  0.00  0.77  0.00
  YS02001920YS02001918    1.00   0.00  0.00  0.00  1.00  0.00  0.00  0.00  0.00  0.00
  YS02001629YS02163301    1.00   0.04  0.00  0.00  0.95  0.00  0.00  0.00  0.00  0.00
  YS02001619YS02001622    1.00   0.04  0.00  0.00  0.96  0.00  0.00  0.00  0.00  0.00
  YS02001622YS02001625    1.00   0.04  0.00  0.00  0.96  0.00  0.00  0.00  0.04  0.00
  YS02001625YS02001629    1.00   0.04  0.02  0.00  0.93  0.00  0.02  0.00  0.00  0.00
  YS02163301YS02001633    1.00   0.00  0.04  0.00  0.96  0.00  0.00  0.00  0.00  0.00
  YS02163601YS02164001    1.00   0.00  0.02  0.00  0.98  0.00  0.00  0.00  0.00  0.00
  YS02164001YS02001641    1.00   0.00  0.02  0.00  0.97  0.00  0.00  0.00  0.06  0.00
  YS02001641YS02001644    1.00   0.00  0.00  0.00  1.00  0.00  0.00  0.00  0.00  0.00
  YS02001647YS02001649    1.00   0.00  0.05  0.00  0.95  0.00  0.00  0.00  0.01  0.00
  YS02006553YS02006556    1.00   0.01  0.00  0.00  0.99  0.00  0.00  0.00  0.03  0.00
  YS02006556YS02006558    1.00   0.00  0.00  0.00  1.00  0.00  0.00  0.00  0.00  0.00
  YSB6556YSB1171          1.00   0.01  0.02  0.00  0.96  0.00  0.00  0.00  0.00  0.00
  YS02001907YS02006553    1.00   0.00  0.01  0.00  0.99  0.00  0.00  0.00  0.00  0.00
  YS02006558YS02006561    1.00   0.05  0.00  0.00  0.13  0.82  0.00  0.00  0.51  0.00
  YS02001633YS02163601    1.00   0.00  0.00  0.00  1.00  0.00  0.00  0.00  0.15  0.00
  YS02001644YS02001647    1.00   0.00  0.05  0.00  0.95  0.00  0.00  0.00  0.00  0.00
  YS02001745YS02001748    1.00   0.00  0.00  0.00  0.90  0.01  0.00  0.09  0.04  0.00
  YS02001748YS02001751    1.00   0.00  0.00  0.00  0.97  0.03  0.00  0.00  0.15  0.00
  YS02001751YS02001754    1.00   0.00  0.00  0.00  0.94  0.00  0.00  0.06  0.02  0.00
  YS02001754YS02001757    1.00   0.00  0.00  0.00  1.00  0.00  0.00  0.00  0.18  0.00
  YS02001882YS02001884    1.00   0.04  0.00  0.00  0.95  0.00  0.00  0.00  0.00  0.00
  YS02001884YS02001887    1.00   0.02  0.01  0.00  0.97  0.00  0.00  0.00  0.00  0.00
  YS02001890YS02001895    1.00   0.00  0.04  0.00  0.95  0.00  0.00  0.00  0.00  0.00
  YS02001895YS02001898    1.00   0.05  0.00  0.00  0.94  0.00  0.01  0.00  0.00  0.00
  YS02001898YS02001901    1.00   0.05  0.00  0.00  0.95  0.00  0.00  0.00  0.01  0.00
  YS02001901YS02001904    1.00   0.05  0.00  0.00  0.95  0.00  0.00  0.00  0.00  0.00
  YS02001904YS02001907    1.00   0.00  0.05  0.00  0.95  0.00  0.00  0.00  0.00  0.00
  YS02001887YS02001890    1.00   0.00  0.00  0.00  0.99  0.00  0.01  0.00  0.00  0.00
  YS02001652YS02001649    1.00   0.00  0.00  0.00  1.00  0.00  0.00  0.00  0.16  0.00
  YS02001655YS02001652    1.00   0.00  0.00  0.00  0.94  0.00  0.00  0.06  0.02  0.00
  YS02001658YS02001655    1.00   0.00  0.04  0.00  0.93  0.03  0.00  0.00  0.08  0.00
  YS02001661YS02001658    1.00   0.04  0.00  0.00  0.90  0.06  0.00  0.00  0.09  0.00
  YS02001664YS02001661    1.00   0.04  0.00  0.00  0.91  0.05  0.00  0.00  0.19  0.00
  YSB1154YSB6556          1.00   0.04  0.00  0.00  0.96  0.00  0.00  0.00  0.01  0.00
  YSB1174YSB1171          1.00   0.02  0.01  0.00  0.97  0.00  0.00  0.00  0.00  0.00
  YSB1171HS02004479       1.00   0.01  0.00  0.00  0.98  0.00  0.00  0.00  0.10  0.00
  HS02004881HS02006253    1.00   0.02  0.00  0.00  0.78  0.01  0.00  0.19  0.63  0.00
  YS02001793JiankangQianchi    1.00   0.00  0.00  0.00  0.57  0.43  0.00  0.00  0.42  0.00
  YS02001757CaochengTiaoxuchi    1.00   0.00  0.07  0.00  0.93  0.00  0.00  0.00  0.00  0.00
  WSF200WS02003060        1.00   0.00  0.01  0.00  0.99  0.00  0.00  0.00  0.20  0.00
  1                       1.00   0.00  0.00  0.00  0.00  1.00  0.00  0.00  0.53  0.00
  
  
  *************************
  Conduit Surcharge Summary
  *************************
  
  ----------------------------------------------------------------------------
                                                           Hours        Hours 
                         --------- Hours Full --------   Above Full   Capacity
  Conduit                Both Ends  Upstream  Dnstream   Normal Flow   Limited
  ----------------------------------------------------------------------------
  WS02006229WS02006228        5.13      5.20      5.13      5.80         5.13
  WS02006256WS02006235        5.98      5.99      6.71      4.22         0.01
  WS02006253WS02006251        3.57      3.57      3.67      0.01         0.01
  WS02006252WS02006251        3.43      3.43      4.04      3.62         0.01
  WS02006251WS02006249        3.58      3.60      3.64      3.08         2.80
  WS02006249WS02006248        3.54      3.54      3.64      4.85         0.01
  WS02006248WS02006247        3.60      3.60      3.78      0.01         0.01
  WS02006247WS02006245        3.73      3.82      3.73      4.87         3.70
  WS02006245WS02006243        3.75      3.77      3.85      1.27         1.26
  WS02006243WS02006242        3.92      3.92      4.45      0.01         0.01
  WS02006242WS02006240        4.23      4.23      4.54      4.00         0.01
  WS02006240WS02006239        4.22      4.26      4.25      2.74         2.12
  WS02006239WS02006238        4.35      4.44      4.54      2.97         2.39
  WS02006238WS02006235        4.48      4.48      4.74      0.01         0.01
  WS02006235WS02006234        3.87      3.87      4.41      5.97         0.01
  WS02006234WS02006232        4.31      4.31      4.92      1.95         1.87
  WS02006232WS02006231        2.81      2.81      4.92      2.22         0.01
  WS02006231WS02006230        2.44      2.44      2.89      5.97         0.01
  WS02006230WS02006229        5.50      5.67      5.50      6.06         5.50
  WS02006228WS02006109        5.16      5.38      5.16      6.04         5.16
  WS02006116WS02004401        0.29      0.29      0.30      0.23         0.23
  WS02006115WS02006116        0.18      0.18      0.19      0.14         0.13
  WS02006112WS02006115        0.16      0.16      3.48      0.01         0.01
  WS02006111WS02006112        0.01      0.01      5.89      0.01         0.01
[...]
  YS02001765YS02001762        5.84      5.84      5.87      0.01         0.01
  YS02001770YS02001767        5.81      5.81      5.81      0.19         0.88
  YS02001774YS02001770        5.80      5.80      5.86      0.01         0.01
  YS02001779YS02001774        5.68      5.68      5.86      0.01         0.01
  YS02001649YS02001757        5.87      5.87      5.98      0.01         0.01
  YS02001767YS02001765        5.81      5.81      5.84      0.01         0.01
  YS02006561YS02001783        0.77      0.77      1.04      0.01         0.01
  YS02001783YS02001784        1.02      1.04      1.02      1.40         1.01
  YS02001784YS02001785        0.97      1.02      0.97      2.38         0.96
  YS02001788YS02001790        0.91      0.91      1.46      0.01         0.01
  YS02001790YS02001791        1.45      1.46      1.54      0.87         0.84
  YS02001791YS02001793        1.54      1.54      1.87      0.01         0.01
  YS02001910YS02001907        1.06      1.06      1.77      0.01         0.01
  YS02001786YS02001788        0.91      0.97      0.91      1.96         0.91
  YS02001915YS02001910        0.89      0.89      1.06      0.01         0.01
  YS02001918YS02001915        0.71      0.71      0.89      0.01         0.01
  YS02001923YS02001920        0.53      0.53      0.74      0.01         0.01
  YS02001920YS02001918        0.71      0.71      0.74      0.01         0.01
  YS02001629YS02163301        5.80      5.80      5.81      0.01         0.01
  YS02001619YS02001622        5.47      5.47      5.51      0.01         0.01
  YS02001622YS02001625        5.50      5.50      5.76      0.01         0.01
  YS02001625YS02001629        5.48      5.48      5.76      0.01         0.01
  YS02163301YS02001633        5.81      5.81      5.84      0.01         0.01
  YS02163601YS02164001        5.84      5.84      5.87      0.01         0.01
  YS02164001YS02001641        5.84      5.84      5.85      0.01         0.04
  YS02001641YS02001644        5.85      5.85      5.85      1.52         1.63
  YS02001647YS02001649        5.75      5.75      5.87      0.01         0.01
  YS02006553YS02006556        1.30      1.30      1.86      0.01         0.01
  YS02006556YS02006558        1.52      1.52      1.94      0.01         0.01
  YS02001907YS02006553        2.42      2.42      2.67      0.01         0.01
  YS02006558YS02006561        0.90      1.26      0.90      2.24         0.90
  YS02001633YS02163601        5.83      5.83      5.87      0.01         0.01
  YS02001644YS02001647        5.75      5.75      5.85      0.01         0.01
  YS02001745YS02001748        0.01      0.01      5.12      0.01         0.01
  YS02001748YS02001751        5.36      5.36      5.48      0.01         0.01
  YS02001751YS02001754        5.48      5.48      5.69      0.01         0.01
  YS02001754YS02001757        5.74      5.74      5.98      0.01         0.01
  YS02001882YS02001884        0.90      0.90      0.93      0.01         0.01
  YS02001884YS02001887        0.97      0.97      0.99      0.01         0.01
  YS02001890YS02001895        0.88      0.88      1.08      0.01         0.01
  YS02001895YS02001898        0.86      0.86      0.88      0.01         0.01
  YS02001898YS02001901        0.89      0.89      0.96      0.01         0.01
  YS02001901YS02001904        0.94      0.94      0.96      0.01         0.01
  YS02001904YS02001907        0.94      0.94      1.88      0.01         0.01
  YS02001887YS02001890        1.02      1.02      1.03      0.01         0.01
  YS02001652YS02001649        5.76      5.76      5.87      0.01         0.01
  YS02001655YS02001652        5.50      5.50      5.73      0.01         0.01
  YS02001658YS02001655        5.21      5.21      5.50      0.01         0.01
  YS02001661YS02001658        0.15      0.15      5.21      0.01         0.01
  YS02001664YS02001661        0.01      0.01      0.90      0.01         0.01
  HS02004881HS02006253        0.01      0.01      2.27      0.01         0.01
  YS02001793JiankangQianchi        1.79      1.79      3.80      0.01         0.01
  YS02001757CaochengTiaoxuchi        5.21      5.21      5.98      0.01         0.01
  
  
  ***************
  Pumping Summary
  ***************
  
  ---------------------------------------------------------------------------------------------------------
                                                  Min       Avg       Max     Total     Power    % Time Off
                        Percent   Number of      Flow      Flow      Flow    Volume     Usage    Pump Curve
  Pump                 Utilized   Start-Ups       LPS       LPS       LPS  10^6 ltr     Kw-hr    Low   High
  ---------------------------------------------------------------------------------------------------------
  CC-Pump-1               63.83           1      0.00    196.17    200.00     3.540      4.80    0.0    0.0
  CC-Pump-2               53.19           4      0.00    135.86    200.00     2.460      3.77    0.0    0.0
  JK-Pump-1               59.57           5      0.00    226.12    300.00     3.586     57.52    0.0    0.0
  JK-Pump-2               57.44           5      0.00    402.43    683.00     6.505     97.74    0.0   96.3
  XR-Pump-1              100.00           1      0.00     95.00     95.00     2.679     28.05    0.0    0.0
  XR-Pump-2               97.87           2      0.00     93.66     95.00     2.508     24.37    0.0    0.0
  XR-Pump-3               95.74           3      0.00     92.19     95.00     2.394     21.92    0.0    0.0
  XR-Pump-4               95.74           3      0.00     92.19     95.00     2.394     21.92    0.0    0.0
  
  
  ***************************
  Link Pollutant Load Summary
  ***************************
  
  ------------------------------------------------------------------------------------------
                                 COD            SS            TN            TP         NH4-N
  Link                            kg            kg            kg            kg            kg
  ------------------------------------------------------------------------------------------
  WS02003066WSF200           890.823      1634.079        23.169         1.996        12.153
  WS02006287WS02006284       268.069       498.243         9.345         0.943         5.213
  WS02006284WS02006280       268.556       499.029         9.392         0.949         5.242
  WS02006280WS02006229       268.519       498.961         9.390         0.948         5.241
  WS02006229WS02006228       901.877      1653.125        22.960         1.946        11.972
  WS02006256WS02006235       173.222       317.785         3.867         0.304         1.963
  WS02006253WS02006251        47.834        92.505         1.083         0.082         0.540
  WS02006252WS02006251       479.560       865.069        10.043         0.714         4.926
  WS02006251WS02006249       522.727       949.358        11.041         0.791         5.427
  WS02006249WS02006248       472.753       858.466         9.988         0.715         4.908
  WS02006248WS02006247       472.213       857.558         9.978         0.714         4.904
  WS02006247WS02006245       471.439       856.198         9.961         0.713         4.895
  WS02006245WS02006243       470.666       854.929         9.941         0.712         4.885
  WS02006243WS02006242       469.892       853.590         9.927         0.711         4.879
  WS02006242WS02006240       468.797       851.713         9.901         0.709         4.866
  WS02006240WS02006239       468.589       851.481         9.894         0.708         4.862
  WS02006239WS02006238       469.392       852.951         9.922         0.711         4.878
  WS02006238WS02006235       469.718       853.418         9.936         0.713         4.886
  WS02006235WS02006234       638.531      1163.192        13.694         1.008         6.793
  WS02006234WS02006232       637.691      1161.726        13.680         1.007         6.787
  WS02006232WS02006231       636.775      1160.139        13.658         1.005         6.776
  WS02006231WS02006230       635.973      1158.743        13.642         1.004         6.768
  WS02006230WS02006229       634.507      1156.190        13.604         1.001         6.749
  WS02006228WS02006109       900.655      1651.017        22.931         1.944        11.956
  WS02006116WS02004401       909.411      1666.487        23.665         2.038        12.413
  WS02006115WS02006116       911.141      1669.489        23.712         2.042        12.438
  WS02006113WS02006111       905.651      1658.577        23.646         2.037        12.413
  WS02006112WS02006115       912.880      1672.523        23.767         2.047        12.467
  WS02006111WS02006112       904.988      1657.390        23.633         2.037        12.407
  WS02006110WS02006113       906.436      1659.929        23.671         2.040        12.427
  WS02006109WS02006110       907.877      1662.416        23.719         2.044        12.453
  WS02004411WS02004412       895.842      1642.811        23.334         2.012        12.244
  WS02004401WS02004402       907.660      1663.440        23.610         2.033        12.383
  WS02004413WS02003067       891.928      1635.991        23.199         1.999        12.169
  WS02004412WS02004413       894.010      1639.616        23.281         2.007        12.215
  WS02004410WS02004411       897.384      1645.490        23.378         2.016        12.268
  WS02004409WS02004410       898.919      1648.158        23.425         2.020        12.293
  WS02004407WS02004409       900.269      1650.492        23.464         2.023        12.313
  WS02004406WS02004407       900.771      1651.339        23.475         2.024        12.319
  WS02004405WS02004406       903.084      1655.312        23.570         2.034        12.373
  WS02004404WS02004405       904.678      1658.110        23.590         2.034        12.381
  WS02004403WS02004404       904.568      1658.073        23.514         2.024        12.331
  WS02004402WS02004403       906.033      1660.624        23.562         2.028        12.357
  WS02004139WS02001211      1405.255      2315.079       116.876        14.313        72.177
  WS02004138WS02004139      1411.635      2325.623       117.389        14.375        72.493
  WS02003067WS02003066       891.128      1634.610        23.179         1.997        12.159
  WS02001213WS02003059      1438.080      2366.873       120.243        14.737        74.291
  WS02001212WS02001213      1447.453      2382.261       121.027        14.833        74.776
  WS02001211WS02001212      1449.400      2385.433       121.197        14.854        74.881
  WS02003072WS02003073      2427.322      4157.297       153.294        17.976        92.639
  WS02003069WS02003072      2432.847      4166.400       153.728        18.028        92.906
  WS02003060WS02003069      2435.940      4171.669       153.899        18.048        93.008
  WS02003059WS02003060      1434.922      2361.602       120.004        14.708        74.145
  HS02004901HS02004770        10.271        19.479         0.196         0.015         0.091
  HS02004876HS02004881        37.320        72.585         0.843         0.062         0.416
  HS02004870HS02004876        28.162        54.632         0.678         0.051         0.338
  HS02004842HS02004848         5.467        10.277         0.115         0.008         0.053
  HS02004837HS02004842        10.072        17.582         0.584         0.067         0.347
  HS02004830HS02004837        65.639       112.705         4.556         0.546         2.785
  HS02004824HS02004830        66.390       113.908         4.628         0.555         2.829
  HS02004817HS02004824        88.207       156.979         5.083         0.584         3.051
  HS02004770HS02004777        39.298        75.470         0.819         0.055         0.377
  HS02004799HS02004480       131.419       245.390         3.680         0.335         1.932
  HS02004792HS02004799       119.093       220.678         3.497         0.327         1.853
  HS02004788HS02004792        68.400       126.866         2.388         0.235         1.309
  HS02004785HS02004788        40.737        77.767         0.969         0.074         0.471
  HS02004777HS02004785        40.063        76.673         0.909         0.067         0.434
  HS02004480HS02004478       165.961       312.618         4.243         0.374         2.195
  HS02004479HS02004480        38.145        72.976         0.884         0.079         0.462
  HS02004862HS02004870        21.017        40.120         0.536         0.043         0.270
  HS02004848HS02004852         8.058        15.280         0.167         0.011         0.077
  HS02004856HS02004862        14.073        27.342         0.284         0.019         0.133
  HS02004852HS02004856         8.065        15.292         0.167         0.011         0.077
  HS02004802HS02004478       102.887       186.893         5.162         0.575         3.054
  HS02004478WS02006287       268.266       498.572         9.362         0.945         5.224
  HS02004817HS02004807        86.888       154.863         4.956         0.568         2.972
  HS02004807HS02004802       103.114       187.247         5.194         0.580         3.075
  YS02001759YS02001757       357.996       651.259         7.194         0.496         3.514
  YS02001762YS02001759       167.705       305.933         3.598         0.251         1.781
  YS02001765YS02001762       167.425       305.680         3.615         0.253         1.792
  YS02001770YS02001767       165.528       303.123         3.371         0.219         1.635
  YS02001774YS02001770       156.281       302.147         3.013         0.198         1.455
  YS02001779YS02001774       155.047       299.583         3.098         0.212         1.516
  YS02001649YS02001757       295.190       522.089         5.944         0.416         2.843
  YS02001767YS02001765       167.592       306.160         3.635         0.255         1.804
  YS02006561YS02001783       936.263      1717.074        19.835         1.488         9.899
  YS02001783YS02001784       936.158      1716.919        19.831         1.488         9.897
  YS02001784YS02001785       943.494      1728.682        20.544         1.577        10.343
  YS02001788YS02001790       944.111      1729.702        20.616         1.587        10.389
  YS02001790YS02001791       945.246      1731.573        20.719         1.599        10.452
  YS02001791YS02001793       945.211      1731.511        20.716         1.599        10.450
  YS02001910YS02001907       330.149       599.302         8.233         0.642         4.254
  YS02001786YS02001788       943.701      1729.035        20.572         1.581        10.361
  YS02001915YS02001910       330.231       599.428         8.190         0.636         4.224
  YS02001918YS02001915       159.947       278.016         4.662         0.434         2.538
  YS02001923YS02001920       137.657       241.496         2.676         0.188         1.303
  YS02001926YS02001923       136.684       239.908         2.595         0.178         1.253
  YS02001929YS02001926       136.178       239.044         2.555         0.174         1.228
  YS02001920YS02001918       157.919       274.028         4.593         0.427         2.500
  YS02001629YS02163301       103.517       183.421         2.171         0.140         1.012
  YS02001619YS02001622       146.407       262.953         3.031         0.197         1.414
  YS02001622YS02001625       145.250       261.125         3.003         0.195         1.401
  YS02001625YS02001629       104.596       185.205         2.195         0.142         1.023
  YS02163301YS02001633       103.240       182.954         2.164         0.140         1.009
  YS02163601YS02164001       362.089       646.291         7.117         0.503         3.404
  YS02164001YS02001641       361.615       645.491         7.097         0.501         3.393
  YS02001641YS02001644       361.888       645.881         7.097         0.500         3.392
  YS02001647YS02001649       338.104       607.685         6.682         0.467         3.182
  YS02006553YS02006556       657.710      1200.575        14.236         1.095         7.180
  YS02006556YS02006558       657.692      1200.537        14.205         1.091         7.159
  YSB6556YSB1171              21.952        42.197         0.451         0.038         0.229
  YS02001907YS02006553       657.822      1200.801        14.250         1.097         7.189
  YS02006558YS02006561       936.244      1717.025        19.834         1.488         9.899
  YS02001633YS02163601       362.757       647.319         7.096         0.498         3.387
  YS02001644YS02001647       344.230       618.620         6.788         0.475         3.233
  YS02001745YS02001748       210.118       386.544         4.724         0.329         2.358
  YS02001748YS02001751       208.266       383.019         4.769         0.339         2.395
  YS02001751YS02001754       207.299       381.436         4.751         0.338         2.387
  YS02001754YS02001757       208.081       382.617         4.915         0.361         2.493
  YS02001882YS02001884         2.789         4.810         0.056         0.004         0.028
  YS02001884YS02001887         6.780        12.009         0.133         0.010         0.066
  YS02001890YS02001895       389.452       720.637         7.189         0.539         3.508
  YS02001895YS02001898       389.267       720.381         7.182         0.539         3.504
  YS02001898YS02001901       389.088       720.086         7.178         0.538         3.502
  YS02001901YS02001904       388.929       719.859         7.185         0.540         3.507
  YS02001904YS02001907       389.169       720.235         7.239         0.547         3.542
  YS02001887YS02001890       390.241       721.810         7.243         0.546         3.541
  YS02001652YS02001649       154.922       282.900         3.167         0.227         1.484
  YS02001655YS02001652       155.747       284.211         3.188         0.229         1.494
  YS02001658YS02001655       155.513       283.811         3.108         0.218         1.441
  YS02001661YS02001658       160.182       292.096         3.203         0.224         1.485
  YS02001664YS02001661       176.173       319.127         3.552         0.248         1.645
  YSB1154YSB6556              21.533        41.530         0.402         0.032         0.198
  YSB1174YSB1171              14.654        28.290         0.298         0.024         0.149
  YSB1171HS02004479           38.103        72.908         0.887         0.079         0.465
  HS02004881HS02006253        42.471        83.033         0.920         0.066         0.451
  YS02001793JiankangQianchi       949.422      1738.374        20.899         1.618        10.556
  YS02001757CaochengTiaoxuchi       684.771      1222.866        14.486         1.026         7.103
  WSF200WS02003060           890.569      1633.626        23.179         1.998        12.161
  1                         2432.644      4165.302       154.027        18.071        93.106
  CC-Pump-1                  282.372       509.139         5.917         0.421         2.903
  CC-Pump-2                  197.210       355.965         4.127         0.293         2.024
  JK-Pump-1                  223.357       412.613         4.888         0.380         2.469
  JK-Pump-2                  477.021       887.019         9.967         0.750         4.968
  XR-Pump-1                  392.540       644.866        33.125         4.065        20.482
  XR-Pump-2                  353.092       581.752        29.339         3.592        18.116
  XR-Pump-3                  334.867       552.560        27.620         3.378        17.045
  XR-Pump-4                  334.867       552.560        27.620         3.378        17.045
  

  Analysis begun on:  Wed Jul 14 10:27:54 2021
  Analysis ended on:  Wed Jul 14 10:27:57 2021
  Total elapsed time: 00:00:03