
  EPA STORM WATER MANAGEMENT MODEL - VERSION 5.1 (Build 5.3.0.dev0)
  --------------------------------------------------------------

  WARNING 04: minimum elevation drop used for Conduit WS02004404WS02004405
  WARNING 03: negative offset ignored for Link YS02001904YS02001907
  
  *********************************************************
  NOTE: The summary statistics displayed in this report are
  based on results found at every computational time step,  
  not just on results from each reporting time step.
  *********************************************************
  
  ****************
  Analysis Options
  ****************
  Flow Units ............... LPS
  Process Models:
    Rainfall/Runoff ........ YES
    RDII ................... NO
    Snowmelt ............... NO
    Groundwater ............ NO
    Flow Routing ........... YES
    Ponding Allowed ........ NO
    Water Quality .......... YES
  Infiltration Method ...... HORTON
  Flow Routing Method ...... DYNWAVE
  Surcharge Method ......... EXTRAN
  Starting Date ............ 08/28/2015 08:00:00
  Ending Date .............. 08/28/2015 15:50:00
  Antecedent Dry Days ...... 8.0
  Report Time Step ......... 00:01:00
  Wet Time Step ............ 00:01:00
  Dry Time Step ............ 00:01:00
  Routing Time Step ........ 5.00 sec
  Variable Time Step ....... YES
  Maximum Trials ........... 8
  Number of Threads ........ 4
  Head Tolerance ........... 0.001500 m
  
  
  **************************        Volume         Depth
  Runoff Quantity Continuity     hectare-m            mm
  **************************     ---------       -------
  Total Precipitation ......         6.144        13.452
  Evaporation Loss .........         0.000         0.000
  Infiltration Loss ........         1.064         2.328
  Surface Runoff ...........         4.147         9.079
  Final Storage ............         0.935         2.047
  Continuity Error (%) .....        -0.020
  
  
  **************************           COD            SS            TN            TP         NH4-N
  Runoff Quality Continuity             kg            kg            kg            kg            kg
  **************************    ----------    ----------    ----------    ----------    ----------
  Initial Buildup ..........     41378.656     70582.865      1804.177       168.684      1032.807
  Surface Buildup ..........        21.799        40.924         2.400         0.218         1.395
  Wet Deposition ...........         0.000         0.000         0.000         0.000         0.000
  Sweeping Removal .........         0.000         0.000         0.000         0.000         0.000
  Infiltration Loss ........        97.311       184.943         1.849         0.130         0.881
  BMP Removal ..............         0.000         0.000         0.000         0.000         0.000
  Surface Runoff ...........      3769.819      7064.251        72.781         4.964        34.599
  Remaining Buildup ........     37531.916     63371.884      1731.919       163.806       998.709
  Continuity Error (%) .....         0.003         0.004         0.002         0.001         0.001
  
  
  **************************        Volume        Volume
  Flow Routing Continuity        hectare-m      10^6 ltr
  **************************     ---------     ---------
  Dry Weather Inflow .......         0.616         6.165
  Wet Weather Inflow .......         4.145        41.451
  Groundwater Inflow .......         0.000         0.000
  RDII Inflow ..............         0.000         0.000
  External Inflow ..........         0.102         1.024
  External Outflow .........         2.038        20.381
  Flooding Loss ............         2.362        23.621
  Evaporation Loss .........         0.000         0.000
  Exfiltration Loss ........         0.000         0.000
  Initial Stored Volume ....         0.076         0.761
  Final Stored Volume ......         0.660         6.595
  Continuity Error (%) .....        -2.423
  
  
  **************************           COD            SS            TN            TP         NH4-N
  Quality Routing Continuity            kg            kg            kg            kg            kg
  **************************    ----------    ----------    ----------    ----------    ----------
  Dry Weather Inflow .......      1541.201      2465.922       147.955        18.494        92.472
  Wet Weather Inflow .......      3769.008      7062.890        72.763         4.963        34.591
  Groundwater Inflow .......         0.000         0.000         0.000         0.000         0.000
  RDII Inflow ..............         0.000         0.000         0.000         0.000         0.000
  External Inflow ..........       183.418       293.469        17.608         2.201        11.005
  External Outflow .........      2447.877      4242.419       150.417        17.568        90.687
  Flooding Loss ............      2359.650      4399.713        60.469         5.277        31.769
  Exfiltration Loss ........         0.000         0.000         0.000         0.000         0.000
  Mass Reacted .............         0.000         0.000         0.000         0.000         0.000
  Initial Stored Mass ......         0.000         0.000         0.000         0.000         0.000
  Final Stored Mass ........       543.920       937.004        24.080         2.560        13.931
  Continuity Error (%) .....         2.588         2.475         1.410         0.989         1.217
  
  
  *************************
  Highest Continuity Errors
  *************************
  Node HS02004842 (13.41%)
  Node JK-storage (-11.26%)
  Node YS02001884 (9.69%)
  Node HS02004817 (2.53%)
  Node YSB1171 (2.46%)
  
  
  ***************************
  Time-Step Critical Elements
  ***************************
  Link WS02006252WS02006251 (70.07%)
  Link WS02006280WS02006229 (10.59%)
  Link YS02001793JiankangQianchi (3.64%)
  Link WS02006238WS02006235 (3.28%)
  Link WS02004404WS02004405 (2.11%)
  
  
  ********************************
  Highest Flow Instability Indexes
  ********************************
  Link WS02006113WS02006111 (39)
  Link YS02163601YS02164001 (37)
  Link YS02001629YS02163301 (36)
  Link YS02163301YS02001633 (35)
  Link YS02001619YS02001622 (35)
  
  
  *************************
  Routing Time Step Summary
  *************************
  Minimum Time Step           :     0.24 sec
  Average Time Step           :     1.08 sec
  Maximum Time Step           :     5.00 sec
  Percent in Steady State     :    -0.00
  Average Iterations per Step :     4.33
  Percent Not Converging      :    19.04
  
  
  ***************************
  Subcatchment Runoff Summary
  ***************************
  
  ------------------------------------------------------------------------------------------------------------------------------
                            Total      Total      Total      Total     Imperv       Perv      Total       Total     Peak  Runoff
                           Precip      Runon       Evap      Infil     Runoff     Runoff     Runoff      Runoff   Runoff   Coeff
  Subcatchment                 mm         mm         mm         mm         mm         mm         mm    10^6 ltr      LPS
  ------------------------------------------------------------------------------------------------------------------------------
  sub0                      13.45       0.00       0.00       0.63      12.47       0.31      12.77        0.01     3.75   0.950
  sub1                      13.45       0.00       0.00       1.12      11.88       0.36      12.24        0.08    25.66   0.910
  sub2                      13.45       0.00       0.00       4.44       8.39       0.53       8.92        0.08    25.29   0.663
  sub3                      13.45       0.00       0.00       4.56       8.35       0.42       8.77        0.20    55.75   0.652
  sub4                      13.45       0.00       0.00       1.22      11.71       0.26      11.97        0.25    65.52   0.890
  sub5                      13.45       0.00       0.00       0.68      12.41       0.26      12.67        0.14    44.76   0.942
  sub7                      13.45       0.00       0.00       0.86      12.18       0.35      12.53        0.04    14.26   0.931
  sub8                      13.45       0.00       0.00       0.87      12.17       0.34      12.50        0.08    26.26   0.930
  sub9                      13.45       0.00       0.00       0.88      12.17       0.33      12.50        0.06    19.64   0.929
  sub10                     13.45       0.00       0.00       0.78      12.29       0.29      12.58        0.14    44.00   0.935
  sub11                     13.45       0.00       0.00       0.77      12.30       0.31      12.61        0.15    48.45   0.938
  sub12                     13.45       0.00       0.00       1.25      11.66       0.50      12.16        0.11    38.10   0.904
  sub14                     13.45       0.00       0.00       0.88      12.16       0.33      12.49        0.12    38.67   0.929
  sub15                     13.45       0.00       0.00       3.37       9.35       0.66      10.01        0.17    57.01   0.744
  sub16                     13.45       0.00       0.00       3.56       8.97       0.88       9.85        0.10    37.63   0.732
  sub17                     13.45       0.00       0.00       3.47       9.10       0.84       9.94        0.09    30.67   0.739
  sub22                     13.45       0.00       0.00       4.98       7.63       0.81       8.43        0.53   184.54   0.627
  sub23                     13.45       0.00       0.00       4.17       8.43       0.81       9.24        0.44   154.22   0.687
  sub60                     13.45       0.00       0.00       1.53       9.85       0.09       9.93        3.01   438.14   0.738
  sub61                     13.45       0.00       0.00       2.16       9.95       0.12      10.07        3.11   536.45   0.749
  sub62                     13.45       0.00       0.00       0.98      10.84       0.10      10.94        3.36   552.35   0.813
  sub63                     13.45       0.00       0.00       3.77       8.69       0.14       8.83        2.67   492.63   0.656
  sub64                     13.45       0.00       0.00       1.93       9.45       0.09       9.54        2.90   416.72   0.709
  sub65                     13.45       0.00       0.00       1.67       9.61       0.08       9.70        2.98   423.09   0.721
  sub66                     13.45       0.00       0.00       3.81       8.10       0.09       8.18        2.51   380.66   0.608
  sub67                     13.45       0.00       0.00       0.95      11.38       0.13      11.51        3.55   679.52   0.856
  sub68                     13.45       0.00       0.00       1.75      10.45       0.13      10.59        3.26   586.26   0.787
  sub69                     13.45       0.00       0.00       1.83      10.79       0.19      10.98        2.57   544.72   0.816
  sub70                     13.45      11.20       0.00       7.51      14.65       0.88      15.52        3.55   494.81   0.630
  sub71                     13.45       0.00       0.00       0.99      10.58       0.09      10.67        2.52   389.24   0.793
  sub72                     13.45       0.00       0.00       0.89       8.56       0.05       8.61        1.75   189.18   0.640
  1                         13.45      15.11       0.00       1.37      16.56       4.63      21.19        4.98   484.42   0.742
  2                         13.45       0.00       0.00       3.02       3.21       1.96       5.17        2.07   340.45   0.384
  
  
  ****************************
  Subcatchment Washoff Summary
  ****************************
  
  ------------------------------------------------------------------------------------------
                                 COD            SS            TN            TP         NH4-N
  Subcatchment                    kg            kg            kg            kg            kg
  ------------------------------------------------------------------------------------------
  sub0                         2.670         5.197         0.046         0.004         0.022
  sub1                        11.241        22.423         0.210         0.015         0.101
  sub2                         6.894        13.384         0.145         0.010         0.067
  sub3                        16.924        32.573         0.350         0.024         0.161
  sub4                        25.772        51.904         0.510         0.031         0.245
  sub5                        25.778        50.682         0.460         0.035         0.223
  sub7                         5.751        11.638         0.108         0.007         0.052
  sub8                         8.581        17.755         0.171         0.010         0.082
  sub9                         7.353        15.005         0.142         0.009         0.068
  sub10                       21.202        42.223         0.389         0.028         0.188
  sub11                       20.657        41.614         0.386         0.026         0.187
  sub12                       17.724        35.094         0.321         0.024         0.155
  sub14                       15.732        31.800         0.298         0.020         0.144
  sub15                       20.231        39.321         0.389         0.028         0.182
  sub16                       13.129        25.518         0.249         0.019         0.117
  sub17                       12.049        23.208         0.222         0.017         0.105
  sub22                       62.582       119.432         1.186         0.090         0.554
  sub23                       36.683        72.439         0.776         0.051         0.357
  sub60                      243.520       456.962         4.842         0.298         2.321
  sub61                      302.151       564.434         5.627         0.386         2.710
  sub62                      313.722       596.076         6.119         0.388         2.938
  sub63                      223.275       410.850         4.468         0.314         2.075
  sub64                      305.877       553.773         5.626         0.410         2.687
  sub65                      313.037       569.066         5.795         0.415         2.772
  sub66                      176.068       321.340         3.608         0.236         1.687
  sub67                      466.222       877.505         8.365         0.616         4.045
  sub68                      332.037       626.413         6.347         0.429         3.034
  sub69                      298.258       568.561         5.590         0.393         2.674
  sub70                      502.897       962.303        10.037         0.699         4.710
  sub71                      206.745       396.330         4.242         0.246         2.030
  sub72                      164.385       293.107         3.069         0.210         1.476
  1                          349.075       671.606         7.102         0.495         3.297
  2                           42.749        75.577         1.214         0.073         0.518
  ------------------------------------------------------------------------------------------
  System                    4570.974      8595.115        88.408         6.057        41.983
  
  
  ******************
  Node Depth Summary
  ******************
  
  ---------------------------------------------------------------------------------
                                 Average  Maximum  Maximum  Time of Max    Reported
                                   Depth    Depth      HGL   Occurrence   Max Depth
  Node                 Type       Meters   Meters   Meters  days hr:min      Meters
  ---------------------------------------------------------------------------------
  WS02001211           JUNCTION     0.77     0.85     5.69     0  03:07        0.85
  WS02001212           JUNCTION     0.48     0.58     5.64     0  03:06        0.58
  WS02001213           JUNCTION     0.72     0.85     5.62     0  03:05        0.85
  WS02003069           JUNCTION     0.53     0.72     5.30     0  03:05        0.72
  WS02003072           JUNCTION     0.59     0.76     5.13     0  03:06        0.76
  WS02003073           JUNCTION     0.36     0.48     4.54     0  03:06        0.48
  WS02003060           JUNCTION     0.47     0.63     5.57     0  03:05        0.63
  WS02003066           JUNCTION     0.26     0.39     5.94     0  03:04        0.39
  WS02003059           JUNCTION     0.77     0.91     5.60     0  03:05        0.91
  WS02003067           JUNCTION     0.61     0.82     6.14     0  03:03        0.82
  WS02004401           JUNCTION     0.75     1.24     7.24     0  03:02        1.23
  WS02004402           JUNCTION     0.77     1.22     7.18     0  03:02        1.22
  WS02004403           JUNCTION     0.79     1.20     7.13     0  03:02        1.19
  WS02004404           JUNCTION     0.86     1.25     7.10     0  03:02        1.24
  WS02004406           JUNCTION     0.86     1.16     6.99     0  03:02        1.16
  WS02004409           JUNCTION     0.56     0.96     6.73     0  03:03        0.96
  WS02004410           JUNCTION     0.58     0.95     6.67     0  03:03        0.95
  WS02004411           JUNCTION     0.59     0.93     6.61     0  03:03        0.93
  WS02004412           JUNCTION     0.60     0.90     6.54     0  03:03        0.90
  WS02004413           JUNCTION     0.75     1.02     6.49     0  03:03        1.02
  WS02004405           JUNCTION     0.86     1.22     7.07     0  03:01        1.20
  WS02006109           JUNCTION     0.85     1.66     8.28     0  03:02        1.65
  WS02006110           JUNCTION     0.82     1.45     8.03     0  03:02        1.44
  WS02006111           JUNCTION     0.26     0.88     7.59     0  03:02        0.88
  WS02006112           JUNCTION     0.93     1.56     7.44     0  03:02        1.55
  WS02006113           JUNCTION     0.39     0.92     7.82     0  03:02        0.92
  WS02006115           JUNCTION     0.65     1.22     7.36     0  03:02        1.21
  WS02006116           JUNCTION     0.72     1.26     7.30     0  03:02        1.25
  WS02006230           JUNCTION     0.87     1.88     8.62     0  03:02        1.87
  WS02006231           JUNCTION     0.61     1.52     8.64     0  03:02        1.51
  WS02006232           JUNCTION     0.76     1.62     8.66     0  03:02        1.61
  WS02006234           JUNCTION     0.71     1.53     8.68     0  03:02        1.52
  WS02006235           JUNCTION     0.75     1.54     8.70     0  03:02        1.53
  WS02006238           JUNCTION     0.78     1.55     8.70     0  03:02        1.54
  WS02006240           JUNCTION     0.68     1.40     8.69     0  03:02        1.39
  WS02006242           JUNCTION     0.74     1.43     8.69     0  03:02        1.42
  WS02006243           JUNCTION     0.62     1.28     8.70     0  03:03        1.27
  WS02006245           JUNCTION     0.60     1.21     8.70     0  03:03        1.21
  WS02006247           JUNCTION     0.61     1.20     8.70     0  03:01        1.19
  WS02006248           JUNCTION     0.55     1.10     8.69     0  02:57        1.10
  WS02006249           JUNCTION     0.57     1.09     8.69     0  02:54        1.09
  WS02006239           JUNCTION     0.74     1.49     8.70     0  03:02        1.48
  WS02006251           JUNCTION     0.55     1.36     9.03     0  02:54        1.20
  WS02006252           JUNCTION     0.35     0.82     9.06     0  02:54        0.75
  WS02006253           JUNCTION     0.57     1.44     9.08     0  02:54        1.23
  WS02006256           JUNCTION     1.77     2.35     9.28     0  00:00        2.35
  WS02004138           JUNCTION     0.19     0.20     7.45     0  00:00        0.19
  WS02004139           JUNCTION     0.72     0.79     5.70     0  03:07        0.79
  WS02004407           JUNCTION     0.25     0.40     6.71     0  03:03        0.40
  WS02006228           JUNCTION     0.87     1.83     8.48     0  03:02        1.82
  WS02006229           JUNCTION     0.85     1.90     8.59     0  03:02        1.89
  WS02006280           JUNCTION     0.07     0.30     8.57     0  03:04        0.30
  WS02006284           JUNCTION     0.37     0.65     9.04     0  03:02        0.64
  WS02006287           JUNCTION     0.10     0.39     9.34     0  03:02        0.39
  WSF200               JUNCTION     0.25     0.44     5.67     0  03:04        0.44
  HS02004901           JUNCTION     0.12     0.38    10.20     0  03:01        0.37
  HS02004881           JUNCTION     0.01     0.05     9.08     0  03:01        0.05
  HS02004876           JUNCTION     0.04     0.16     9.19     0  03:01        0.16
  HS02004870           JUNCTION     0.01     0.09     9.38     0  03:01        0.09
  HS02004862           JUNCTION     0.02     0.11     9.49     0  03:01        0.11
  HS02004856           JUNCTION     0.08     0.15     9.58     0  03:01        0.15
  HS02004852           JUNCTION     0.01     0.07     9.59     0  03:02        0.07
  HS02004848           JUNCTION     0.01     0.07     9.67     0  03:01        0.07
  HS02004842           JUNCTION     0.34     0.40     9.67     0  03:01        0.40
  HS02004837           JUNCTION     0.03     0.09     9.67     0  03:01        0.09
  HS02004830           JUNCTION     0.04     0.10     9.57     0  03:01        0.10
  HS02004824           JUNCTION     0.02     0.13     9.53     0  03:02        0.13
  HS02004817           JUNCTION     0.44     0.69     9.54     0  03:02        0.69
  HS02004807           JUNCTION     0.13     0.36     9.53     0  03:02        0.36
  HS02004802           JUNCTION     0.16     0.39     9.52     0  03:02        0.39
  HS02004799           JUNCTION     0.12     0.46     9.68     0  03:01        0.46
  HS02004792           JUNCTION     0.03     0.22     9.74     0  03:01        0.21
  HS02004788           JUNCTION     0.03     0.16    10.05     0  03:02        0.16
  HS02004785           JUNCTION     0.04     0.25    10.15     0  03:02        0.25
  HS02004777           JUNCTION     0.15     0.39    10.19     0  03:01        0.39
  HS02004770           JUNCTION     0.12     0.37    10.20     0  03:01        0.36
  HS02004480           JUNCTION     0.08     0.38     9.62     0  03:01        0.38
  HS02004479           JUNCTION     0.12     0.42     9.62     0  03:01        0.42
  HS02004478           JUNCTION     0.06     0.28     9.50     0  03:01        0.28
  YS02001745           JUNCTION     0.75     0.94     8.46     0  03:01        0.94
  YS02001748           JUNCTION     1.15     1.56     8.64     0  02:34        1.37
  YS02001751           JUNCTION     1.33     1.58     8.46     0  03:01        1.56
  YS02001754           JUNCTION     1.59     1.85     8.45     0  03:01        1.81
  YS02001762           JUNCTION     1.79     2.07     8.47     0  03:01        2.03
  YS02001765           JUNCTION     1.74     2.02     8.47     0  03:01        1.97
  YS02001767           JUNCTION     1.70     1.97     8.46     0  03:01        1.93
  YS02001770           JUNCTION     1.70     1.95     8.44     0  03:01        1.92
  YS02001774           JUNCTION     1.77     1.99     8.42     0  03:01        1.98
  YS02001779           JUNCTION     1.51     1.68     8.37     0  02:40        1.68
  YS02001882           JUNCTION     0.54     1.63     8.35     0  03:00        1.63
  YS02001884           JUNCTION     0.64     1.74     8.35     0  03:00        1.73
  YS02001759           JUNCTION     1.82     2.10     8.46     0  03:01        2.06
  YS02001887           JUNCTION     0.72     1.81     8.35     0  03:00        1.81
  YS02001890           JUNCTION     0.75     1.81     8.32     0  02:48        1.81
  YS02001898           JUNCTION     0.51     1.56     8.30     0  03:05        1.56
  YS02001901           JUNCTION     0.63     1.68     8.29     0  02:55        1.67
  YS02001904           JUNCTION     0.61     1.64     8.27     0  03:01        1.63
  YS02001907           JUNCTION     0.94     1.96     8.25     0  02:48        1.96
  YS02001910           JUNCTION     0.73     1.79     8.30     0  02:49        1.79
  YS02001915           JUNCTION     0.53     1.61     8.33     0  02:49        1.59
  YS02001918           JUNCTION     0.28     1.30     8.36     0  02:49        1.30
  YS02001619           JUNCTION     1.30     1.52     8.45     0  02:35        1.48
  YS02001629           JUNCTION     1.65     1.85     8.40     0  02:35        1.84
  YS02001641           JUNCTION     1.75     1.94     8.37     0  02:53        1.93
  YS02001644           JUNCTION     1.75     1.92     8.35     0  02:39        1.92
  YS02001652           JUNCTION     1.60     2.07     8.66     0  03:52        1.91
  YS02001655           JUNCTION     1.36     2.01     8.86     0  03:55        1.75
  YS02001920           JUNCTION     0.38     1.38     8.39     0  02:49        1.38
  YS02001923           JUNCTION     0.22     1.15     8.41     0  02:49        1.14
  YS02001926           JUNCTION     0.28     0.95     8.40     0  02:50        0.94
  YS02001929           JUNCTION     0.16     0.71     8.40     0  02:50        0.70
  YS02001658           JUNCTION     1.09     1.94     9.08     0  03:55        1.56
  YS02001661           JUNCTION     0.85     2.04     9.45     0  03:52        1.45
  YS02001664           JUNCTION     0.38     0.57     8.49     0  02:43        0.56
  YS02001622           JUNCTION     1.32     1.53     8.43     0  02:35        1.50
  YS02001633           JUNCTION     1.74     1.95     8.40     0  02:39        1.94
  YS02001649           JUNCTION     1.80     2.05     8.44     0  02:42        2.03
  YS02001757           JUNCTION     1.92     2.19     8.45     0  03:01        2.16
  YS02001895           JUNCTION     0.51     1.57     8.31     0  02:58        1.56
  YS02001625           JUNCTION     1.60     1.78     8.38     0  02:33        1.78
  YS02163301           JUNCTION     1.68     1.88     8.40     0  02:39        1.87
  YS02163601           JUNCTION     1.79     1.99     8.39     0  06:51        1.98
  YS02164001           JUNCTION     1.73     1.93     8.38     0  06:51        1.91
  YS02001647           JUNCTION     1.58     1.80     8.41     0  02:47        1.78
  YSB1154              JUNCTION     0.26     0.57     9.62     0  03:01        0.57
  YSB6556              JUNCTION     0.15     0.45     9.62     0  03:02        0.45
  YSB1174              JUNCTION     0.21     0.52     9.62     0  03:01        0.51
  YSB1171              JUNCTION     0.41     0.72     9.62     0  03:01        0.72
  YS02006553           JUNCTION     0.94     1.97     8.25     0  03:01        1.97
  YS02006561           JUNCTION     0.30     1.08     7.74     0  03:00        1.07
  YS02006556           JUNCTION     0.91     1.93     8.24     0  02:58        1.93
  YS02006558           JUNCTION     0.95     1.97     8.24     0  02:59        1.97
  YS02001783           JUNCTION     0.53     1.46     7.60     0  03:00        1.45
  YS02001784           JUNCTION     0.55     1.40     7.47     0  02:59        1.39
  YS02001786           JUNCTION     0.49     1.68     7.71     0  02:26        1.24
  YS02001788           JUNCTION     0.42     1.54     7.52     0  02:26        1.09
  YS02001790           JUNCTION     0.54     1.96     7.60     0  04:52        1.25
  YS02001791           JUNCTION     0.51     2.72     8.19     0  04:51        1.23
  YS02001793           JUNCTION     0.73     2.75     7.58     0  04:49        1.79
  WSC                  OUTFALL      0.36     0.48     1.15     0  03:07        0.48
  JK-storage           STORAGE      2.91     5.80     6.60     0  02:25        5.80
  CC-storage           STORAGE      1.17     1.40     8.40     0  03:21        1.40
  XR-storage           STORAGE      6.71     7.72     5.72     0  02:59        7.72
  
  
  *******************
  Node Inflow Summary
  *******************
  
  -------------------------------------------------------------------------------------------------
                                  Maximum  Maximum                  Lateral       Total        Flow
                                  Lateral    Total  Time of Max      Inflow      Inflow     Balance
                                   Inflow   Inflow   Occurrence      Volume      Volume       Error
  Node                 Type           LPS      LPS  days hr:min    10^6 ltr    10^6 ltr     Percent
  -------------------------------------------------------------------------------------------------
  WS02001211           JUNCTION      7.35   390.27     0  03:16       0.207        10.1       0.409
  WS02001212           JUNCTION      0.00   393.20     0  03:16           0          10       0.250
  WS02001213           JUNCTION      0.00   395.71     0  03:16           0          10       0.297
  WS02003069           JUNCTION      0.32  1333.15     0  03:05     0.00902        20.5       0.192
  WS02003072           JUNCTION      0.00  1332.82     0  03:05           0        20.4       0.225
  WS02003073           JUNCTION      1.82  1334.69     0  03:06      0.0514        20.4       0.262
  WS02003060           JUNCTION     16.53  1333.06     0  03:04       0.466        20.5       0.181
  WS02003066           JUNCTION      0.00   938.31     0  03:04           0        10.1       0.054
  WS02003059           JUNCTION      0.00   398.61     0  03:15           0        9.99       0.417
  WS02003067           JUNCTION      0.00   937.80     0  03:04           0        10.1       0.107
  WS02004401           JUNCTION      0.00   939.58     0  03:02           0        10.4       0.240
  WS02004402           JUNCTION      0.00   939.14     0  03:02           0        10.4       0.222
  WS02004403           JUNCTION      0.00   939.56     0  03:02           0        10.3       0.199
  WS02004404           JUNCTION      0.16   940.81     0  03:02     0.00457        10.3       0.144
  WS02004406           JUNCTION      0.00   939.64     0  03:02           0        10.3       0.355
  WS02004409           JUNCTION      0.00   939.04     0  03:03           0        10.2       0.207
  WS02004410           JUNCTION      0.00   938.01     0  03:03           0        10.2       0.228
  WS02004411           JUNCTION      0.00   937.66     0  03:03           0        10.2       0.230
  WS02004412           JUNCTION      0.00   937.22     0  03:03           0        10.2       0.241
  WS02004413           JUNCTION      0.00   937.72     0  03:04           0        10.1       0.347
  WS02004405           JUNCTION      0.04   940.31     0  03:03     0.00107        10.3       0.220
  WS02006109           JUNCTION      1.23   915.51     0  03:02      0.0347        10.4       0.209
  WS02006110           JUNCTION      0.00   915.32     0  03:02           0        10.4       0.213
  WS02006111           JUNCTION      0.00   915.67     0  03:02           0        10.4       0.048
  WS02006112           JUNCTION     30.67   939.36     0  03:02      0.0853        10.5       0.295
  WS02006113           JUNCTION      0.00   915.51     0  03:02           0        10.4       0.125
  WS02006115           JUNCTION      0.00   939.17     0  03:02           0        10.4       0.240
  WS02006116           JUNCTION      0.00   939.44     0  03:02           0        10.4       0.228
  WS02006230           JUNCTION     10.28   532.28     0  05:53        0.29        8.02       0.214
  WS02006231           JUNCTION      0.00   521.76     0  05:53           0        7.74       0.172
  WS02006232           JUNCTION      0.00   521.76     0  05:53           0        7.76       0.236
  WS02006234           JUNCTION      0.00   522.28     0  05:52           0        7.77       0.140
  WS02006235           JUNCTION      0.00   523.06     0  05:53           0        7.81       0.149
  WS02006238           JUNCTION      0.00   417.93     0  04:40           0        4.34       0.173
  WS02006240           JUNCTION      0.00   416.82     0  04:40           0        4.33       0.376
  WS02006242           JUNCTION      0.00   416.58     0  04:40           0        4.34       0.427
  WS02006243           JUNCTION      0.00   416.09     0  04:40           0        4.35       0.308
  WS02006245           JUNCTION      0.00   415.69     0  04:40           0        4.36       0.314
  WS02006247           JUNCTION      0.00   415.96     0  04:40           0        4.37       0.223
  WS02006248           JUNCTION      0.00   416.52     0  04:40           0        4.38       0.149
  WS02006249           JUNCTION      0.00   544.03     0  03:01           0        4.96       0.250
  WS02006239           JUNCTION      0.00   417.50     0  04:40           0        4.33       0.257
  WS02006251           JUNCTION      0.08   544.81     0  03:01     0.00217        5.02       0.207
  WS02006252           JUNCTION      0.00   400.00     0  03:00           0         4.5       0.009
  WS02006253           JUNCTION      3.75   143.71     0  03:01      0.0103       0.521       0.988
  WS02006256           JUNCTION      0.00   983.00     0  00:00           0        10.6      -0.005
  WS02004138           JUNCTION      0.00   380.00     0  00:00           0        9.92       0.064
  WS02004139           JUNCTION      0.32   396.51     0  00:00     0.00905        9.92       0.463
  WS02004407           JUNCTION      0.00   939.33     0  03:03           0        10.2       0.092
  WS02006228           JUNCTION      0.00   914.09     0  03:02           0        10.4       0.162
  WS02006229           JUNCTION      0.00   916.48     0  03:02           0        10.4       0.134
  WS02006280           JUNCTION      0.00   680.13     0  03:02           0        2.43       0.011
  WS02006284           JUNCTION      0.10   679.00     0  03:02      0.0027        2.43       0.045
  WS02006287           JUNCTION      0.00   677.65     0  03:02           0        2.43       0.031
  WSF200               JUNCTION      0.00   938.45     0  03:04           0        10.1       0.056
  HS02004901           JUNCTION     37.63    37.63     0  03:01       0.103       0.103       1.741
  HS02004881           JUNCTION     14.26   140.53     0  03:01      0.0422       0.463       0.101
  HS02004876           JUNCTION     25.66   127.64     0  03:01      0.0814       0.422       0.131
  HS02004870           JUNCTION     26.26   103.59     0  03:01      0.0799        0.34       0.035
  HS02004862           JUNCTION     25.49    79.37     0  03:01      0.0888       0.261       0.068
  HS02004856           JUNCTION     19.64    55.40     0  03:01      0.0601       0.173       0.840
  HS02004852           JUNCTION      0.00    37.84     0  03:01           0       0.113       0.053
  HS02004848           JUNCTION     55.75    55.75     0  03:01       0.197       0.197       0.028
  HS02004842           JUNCTION      0.00    16.84     0  03:01           0       0.097      15.491
  HS02004837           JUNCTION     50.35    65.69     0  03:01       0.318       0.402       0.204
  HS02004830           JUNCTION      0.15    64.80     0  03:01     0.00423       0.392       0.316
  HS02004824           JUNCTION     65.57   128.44     0  03:01       0.251       0.642       0.086
  HS02004817           JUNCTION      0.60   124.46     0  03:01      0.0169       0.658       2.599
  HS02004807           JUNCTION     48.45   165.65     0  03:01       0.147       0.788       0.554
  HS02004802           JUNCTION      0.00   165.30     0  03:04           0       0.785       0.508
  HS02004799           JUNCTION     38.67   446.04     0  03:01       0.119        1.42       0.191
  HS02004792           JUNCTION    184.82   411.82     0  03:01        0.54         1.3       0.033
  HS02004788           JUNCTION     58.68   233.44     0  03:02       0.219       0.758       0.053
  HS02004785           JUNCTION      0.15   182.21     0  03:01     0.00423        0.54       0.094
  HS02004777           JUNCTION      0.03   185.00     0  03:01    0.000846       0.541       0.972
  HS02004770           JUNCTION    154.22   188.94     0  03:01       0.441       0.542       0.577
  HS02004480           JUNCTION      0.00   517.23     0  03:01           0        1.66       0.069
  HS02004479           JUNCTION      0.00    75.49     0  03:02           0       0.258       0.286
  HS02004478           JUNCTION      0.00   677.06     0  03:02           0        2.43       0.011
  YS02001745           JUNCTION    438.14   438.14     0  03:01        3.01        3.02       0.370
  YS02001748           JUNCTION      0.04   553.29     0  02:33     0.00127        3.01       0.731
  YS02001751           JUNCTION      0.01   444.38     0  03:01     0.00031        2.98       0.799
  YS02001754           JUNCTION      0.26   444.12     0  03:01     0.00733        2.96       0.843
  YS02001762           JUNCTION      0.00   316.71     0  02:43           0        1.95       1.106
  YS02001765           JUNCTION      0.00   316.29     0  02:43           0        1.95       1.272
  YS02001767           JUNCTION      0.54   316.72     0  02:43      0.0151        1.97       1.849
  YS02001770           JUNCTION    552.50   649.56     0  03:01        3.37         3.7       0.865
  YS02001774           JUNCTION      0.00   651.49     0  03:01           0        2.05       1.248
  YS02001779           JUNCTION      0.01   653.05     0  03:01    0.000141        2.02       0.772
  YS02001882           JUNCTION      0.00    16.19     0  02:28           0      0.0268       9.615
  YS02001884           JUNCTION      0.00    28.25     0  02:37           0       0.065      10.734
  YS02001759           JUNCTION    536.49   622.34     0  02:43        3.11        4.69       0.493
  YS02001887           JUNCTION    679.97   679.97     0  03:01        3.56         3.6       0.242
  YS02001890           JUNCTION      0.00   680.34     0  03:01           0        3.55       0.271
  YS02001898           JUNCTION      0.00   518.16     0  03:07           0        3.45       0.086
  YS02001901           JUNCTION      0.00   518.53     0  03:07           0        3.45       0.217
  YS02001904           JUNCTION      0.00   518.16     0  03:07           0        3.44       0.195
  YS02001907           JUNCTION      0.00  1097.92     0  03:02           0        7.77       0.315
  YS02001910           JUNCTION      0.00   580.81     0  03:02           0        4.34       0.273
  YS02001915           JUNCTION    389.26   580.19     0  03:02        2.52        4.35       0.150
  YS02001918           JUNCTION      0.00   265.47     0  02:50           0        1.84       0.081
  YS02001619           JUNCTION    380.66   380.66     0  03:01        2.51        2.51       0.487
  YS02001629           JUNCTION      0.00   196.70     0  02:39           0        1.59       1.848
  YS02001641           JUNCTION      0.00   413.34     0  02:39           0        4.45       0.482
  YS02001644           JUNCTION    416.76  1494.15     0  03:01         2.9        10.5       0.249
  YS02001652           JUNCTION      0.00   502.05     0  03:01           0        2.63       0.910
  YS02001655           JUNCTION      0.15   501.27     0  03:01     0.00434        2.65       0.907
  YS02001920           JUNCTION      2.87   265.62     0  02:50      0.0809        1.84       0.158
  YS02001923           JUNCTION      0.04   227.57     0  02:51     0.00106        1.76       0.056
  YS02001926           JUNCTION      0.05   200.22     0  02:50     0.00147        1.75       0.189
  YS02001929           JUNCTION    189.18   189.18     0  03:01        1.75        1.75       0.036
  YS02001658           JUNCTION      0.00   594.55     0  02:29           0        2.69       0.807
  YS02001661           JUNCTION      0.00   666.27     0  02:42           0         3.2      -0.223
  YS02001664           JUNCTION    492.63   492.63     0  03:01        2.67        3.19       0.221
  YS02001622           JUNCTION      0.00   381.13     0  03:01           0         2.5       1.292
  YS02001633           JUNCTION    423.29   423.29     0  03:01        2.99        4.52       0.719
  YS02001649           JUNCTION      0.00   876.01     0  02:39           0        5.77       0.653
  YS02001757           JUNCTION      0.00  1679.46     0  02:40           0         9.8       0.946
  YS02001895           JUNCTION      0.00   518.46     0  03:07           0        3.45       0.153
  YS02001625           JUNCTION      0.00   407.79     0  03:01           0        2.48       1.583
  YS02163301           JUNCTION      0.00   206.04     0  02:33           0        1.57       1.567
  YS02163601           JUNCTION      0.11   413.41     0  02:39      0.0031        4.48       0.682
  YS02164001           JUNCTION      0.00   413.76     0  02:39           0        4.46       0.459
  YS02001647           JUNCTION      0.00   680.00     0  03:01           0        4.93       0.576
  YSB1154              JUNCTION     44.76    44.76     0  03:01       0.144       0.144       1.017
  YSB6556              JUNCTION      0.00    43.25     0  03:01           0       0.145       0.869
  YSB1174              JUNCTION     38.10    38.10     0  03:01       0.106       0.107       1.222
  YSB1171              JUNCTION      0.00    76.89     0  03:01           0       0.257       2.525
  YS02006553           JUNCTION      0.00   709.01     0  03:46           0        6.75       0.236
  YS02006561           JUNCTION      0.00  1044.07     0  02:49           0        9.97       0.006
  YS02006556           JUNCTION      0.00   709.09     0  03:46           0        6.75       0.173
  YS02006558           JUNCTION    587.14  1045.19     0  02:49        3.28          10       0.054
  YS02001783           JUNCTION      0.00  1043.86     0  02:49           0        9.97       0.027
  YS02001784           JUNCTION      1.06  1044.42     0  02:49      0.0299          10       0.038
  YS02001786           JUNCTION      0.06  1044.07     0  02:49     0.00159          10       0.036
  YS02001788           JUNCTION      0.07  1044.28     0  02:49       0.002          10       0.023
  YS02001790           JUNCTION      0.15  1044.38     0  02:49     0.00437          10       0.020
  YS02001791           JUNCTION      0.00  1044.39     0  02:49           0          10       0.012
  YS02001793           JUNCTION      0.00  1044.59     0  02:49           0          10      -0.025
  WSC                  OUTFALL       0.00  1334.78     0  03:07           0        20.4       0.000
  JK-storage           STORAGE       0.00  1081.52     0  02:20           0        10.2     -10.118
  CC-storage           STORAGE       0.00  1680.26     0  02:41           0        8.28       0.784
  XR-storage           STORAGE    1024.87  1024.87     0  03:01        12.7        13.3      -0.004
  
  
  **********************
  Node Surcharge Summary
  **********************
  
  Surcharging occurs when water rises above the top of the highest conduit.
  ---------------------------------------------------------------------
                                               Max. Height   Min. Depth
                                   Hours       Above Crown    Below Rim
  Node                 Type      Surcharged         Meters       Meters
  ---------------------------------------------------------------------
  WS02004401           JUNCTION        0.56          0.235        1.425
  WS02004402           JUNCTION        0.61          0.223        1.517
  WS02004403           JUNCTION        0.62          0.200        1.830
  WS02004404           JUNCTION        1.08          0.246        2.534
  WS02004406           JUNCTION        0.90          0.164        2.286
  WS02004413           JUNCTION        0.20          0.023        2.177
  WS02004405           JUNCTION        1.01          0.218        2.582
  WS02006109           JUNCTION        4.00          0.839        0.981
  WS02006110           JUNCTION        2.26          0.538        1.312
  WS02006111           JUNCTION        0.13          0.074        1.796
  WS02006112           JUNCTION        2.84          0.562        1.118
  WS02006113           JUNCTION        0.16          0.122        1.808
  WS02006115           JUNCTION        0.37          0.207        2.043
  WS02006116           JUNCTION        0.40          0.202        2.088
  WS02006230           JUNCTION        1.80          0.795        0.775
  WS02006231           JUNCTION        2.42          0.808        0.722
  WS02006232           JUNCTION        3.88          0.923        0.557
  WS02006234           JUNCTION        3.32          0.806        0.434
  WS02006235           JUNCTION        3.53          0.828        0.462
  WS02006238           JUNCTION        3.60          0.835        0.595
  WS02006240           JUNCTION        3.10          0.692        0.698
  WS02006242           JUNCTION        3.21          0.696        0.124
  WS02006243           JUNCTION        2.46          0.567        0.203
  WS02006245           JUNCTION        2.25          0.500        0.350
  WS02006247           JUNCTION        2.26          0.488        0.272
  WS02006248           JUNCTION        1.95          0.380        0.000
  WS02006249           JUNCTION        2.02          0.390        0.000
  WS02006239           JUNCTION        3.27          0.748        0.542
  WS02006251           JUNCTION        1.23          0.332        0.848
  WS02006252           JUNCTION        2.41          0.422        0.678
  WS02006253           JUNCTION        1.27          0.399        2.081
  WS02006256           JUNCTION        6.67          2.050        0.000
  WS02006228           JUNCTION        3.98          0.996        1.204
  YS02001748           JUNCTION        5.22          0.481        0.709
  YS02001751           JUNCTION        5.38          0.579        0.621
  YS02001754           JUNCTION        5.57          0.795        0.355
  YS02001762           JUNCTION        5.75          1.068        0.082
  YS02001765           JUNCTION        5.72          1.016        0.084
  YS02001767           JUNCTION        5.69          0.970        0.060
  YS02001770           JUNCTION        5.68          0.919        0.001
  YS02001774           JUNCTION        5.74          0.994        0.056
  YS02001779           JUNCTION        5.56          0.680        0.000
  YS02001882           JUNCTION        1.11          0.633        0.197
  YS02001884           JUNCTION        1.14          0.677        0.193
  YS02001759           JUNCTION        5.78          1.100        0.110
  YS02001887           JUNCTION        1.21          0.764        0.186
  YS02001890           JUNCTION        1.24          0.760        0.000
  YS02001898           JUNCTION        1.06          0.534        0.206
  YS02001901           JUNCTION        1.18          0.677        0.193
  YS02001904           JUNCTION        1.16          0.638        0.212
  YS02001907           JUNCTION        1.88          0.950        0.000
  YS02001910           JUNCTION        1.28          0.791        0.309
  YS02001915           JUNCTION        1.09          0.609        0.391
  YS02001918           JUNCTION        0.88          0.297        0.513
  YS02001619           JUNCTION        5.37          0.520        0.090
  YS02001629           JUNCTION        5.38          0.470        0.000
  YS02001641           JUNCTION        5.72          0.936        0.164
  YS02001644           JUNCTION        5.73          0.920        0.000
  YS02001652           JUNCTION        5.61          1.039        0.091
  YS02001655           JUNCTION        5.40          1.010        0.190
  YS02001920           JUNCTION        0.91          0.381        0.759
  YS02001658           JUNCTION        5.25          0.936        0.364
  YS02001661           JUNCTION        0.16          0.972        0.418
  YS02001622           JUNCTION        5.41          0.529        0.091
  YS02001633           JUNCTION        5.71          0.926        0.134
  YS02001649           JUNCTION        5.76          1.050        0.000
  YS02001757           JUNCTION        5.86          1.186        0.024
  YS02001895           JUNCTION        1.07          0.566        0.184
  YS02001625           JUNCTION        5.64          0.780        0.000
  YS02163301           JUNCTION        5.68          0.883        0.147
  YS02163601           JUNCTION        5.75          0.994        0.086
  YS02164001           JUNCTION        5.72          0.926        0.174
  YS02001647           JUNCTION        5.62          0.802        0.098
  YS02006553           JUNCTION        1.97          0.969        0.221
  YS02006561           JUNCTION        0.90          0.280        0.870
  YS02006556           JUNCTION        1.51          0.891        0.459
  YS02006558           JUNCTION        1.47          0.874        0.526
  YS02001783           JUNCTION        1.43          0.661        0.939
  YS02001784           JUNCTION        1.41          0.598        0.892
  YS02001786           JUNCTION        1.35          0.879        0.551
  YS02001788           JUNCTION        1.17          0.744        0.736
  YS02001790           JUNCTION        2.19          1.157        0.000
  YS02001791           JUNCTION        2.28          1.920        0.000
  YS02001793           JUNCTION        2.56          1.753        0.847
  
  
  *********************
  Node Flooding Summary
  *********************
  
  Flooding refers to all water that overflows a node, whether it ponds or not.
  --------------------------------------------------------------------------
                                                             Total   Maximum
                                 Maximum   Time of Max       Flood    Ponded
                        Hours       Rate    Occurrence      Volume     Depth
  Node                 Flooded       LPS   days hr:min    10^6 ltr    Meters
  --------------------------------------------------------------------------
  WS02006248              0.07     14.74      0  03:03       0.002     0.000
  WS02006249              1.17    458.36      0  03:02       0.567     0.000
  WS02006256              4.21    978.40      0  00:00       7.095     0.000
  YS02001779              2.85    652.90      0  03:01       1.999     0.000
  YS02001890              0.34    162.92      0  03:01       0.085     0.000
  YS02001907              0.75    687.50      0  03:01       1.007     0.000
  YS02001629              0.01      5.03      0  02:35       0.000     0.000
  YS02001644              4.37   1493.15      0  03:01       8.699     0.000
  YS02001649              0.02     31.55      0  03:52       0.001     0.000
  YS02001625              1.42    407.77      0  03:01       0.855     0.000
  YS02001790              0.01    185.49      0  04:52       0.000     0.000
  YS02001791              0.01    201.69      0  04:51       0.000     0.000
  JK-storage              0.80    435.88      0  04:55       0.696     0.000
  XR-storage              3.46    644.73      0  03:01       2.614     0.000
  
  
  **********************
  Storage Volume Summary
  **********************
  
  --------------------------------------------------------------------------------------------------
                         Average     Avg  Evap Exfil       Maximum     Max    Time of Max    Maximum
                          Volume    Pcnt  Pcnt  Pcnt        Volume    Pcnt     Occurrence    Outflow
  Storage Unit           1000 m3    Full  Loss  Loss       1000 m3    Full    days hr:min        LPS
  --------------------------------------------------------------------------------------------------
  JK-storage               0.146      50     0     0         0.291     100       0  02:25     983.00
  CC-storage               3.275      21     0     0         3.890      25       0  03:21     400.00
  XR-storage               0.805      87     0     0         0.926     100       0  02:59     380.00
  
  
  ***********************
  Outfall Loading Summary
  ***********************
  
  ---------------------------------------------------------------------------------------------------------------------------------
                         Flow       Avg       Max       Total         Total         Total         Total         Total         Total
                         Freq      Flow      Flow      Volume           COD            SS            TN            TP         NH4-N
  Outfall Node           Pcnt       LPS       LPS    10^6 ltr            kg            kg            kg            kg            kg
  ---------------------------------------------------------------------------------------------------------------------------------
  WSC                   99.98    809.06   1334.78      20.380      2448.058      4242.728       150.431        17.570        90.696
  ---------------------------------------------------------------------------------------------------------------------------------
  System                99.98    809.06   1334.78      20.380      2448.058      4242.728       150.431        17.570        90.696
  
  
  ********************
  Link Flow Summary
  ********************
  
  -----------------------------------------------------------------------------
                                 Maximum  Time of Max   Maximum    Max/    Max/
                                  |Flow|   Occurrence   |Veloc|    Full    Full
  Link                 Type          LPS  days hr:min     m/sec    Flow   Depth
  -----------------------------------------------------------------------------
  WS02003066WSF200     CONDUIT    938.45     0  03:04      3.00    0.16    0.32
  WS02006287WS02006284 CONDUIT    678.90     0  03:02      2.38    0.31    0.39
  WS02006284WS02006280 CONDUIT    680.13     0  03:02      2.62    0.28    0.37
  WS02006280WS02006229 CONDUIT    680.19     0  03:02      3.83    0.15    0.50
  WS02006229WS02006228 CONDUIT    914.09     0  03:02      1.82    3.03    1.00
  WS02006256WS02006235 CONDUIT    288.60     0  00:00      4.23    3.05    1.00
  WS02006253WS02006251 CONDUIT    144.00     0  03:01      0.50    0.43    1.00
  WS02006252WS02006251 CONDUIT    400.98     0  04:39      3.19    1.47    1.00
  WS02006251WS02006249 CONDUIT    544.03     0  03:01      1.41    1.57    1.00
  WS02006249WS02006248 CONDUIT    416.52     0  04:40      1.19    2.28    1.00
  WS02006248WS02006247 CONDUIT    415.96     0  04:40      1.16    0.91    1.00
  WS02006247WS02006245 CONDUIT    415.69     0  04:40      1.14    3.30    1.00
  WS02006245WS02006243 CONDUIT    416.09     0  04:40      1.18    1.23    1.00
  WS02006243WS02006242 CONDUIT    416.58     0  04:40      1.08    0.89    1.00
  WS02006242WS02006240 CONDUIT    416.82     0  04:40      1.08    1.66    1.00
  WS02006240WS02006239 CONDUIT    417.50     0  04:40      1.08    1.31    1.00
  WS02006239WS02006238 CONDUIT    417.93     0  04:40      1.09    1.34    1.00
  WS02006238WS02006235 CONDUIT    418.95     0  04:40      1.46    0.94    1.00
  WS02006235WS02006234 CONDUIT    522.28     0  05:52      1.36    5.51    1.00
  WS02006234WS02006232 CONDUIT    521.76     0  05:53      1.39    1.06    1.00
  WS02006232WS02006231 CONDUIT    521.76     0  05:53      1.36    1.09    1.00
  WS02006231WS02006230 CONDUIT    522.00     0  05:53      1.36    7.92    1.00
  WS02006230WS02006229 CONDUIT    531.85     0  05:53      1.38   11.84    1.00
  WS02006228WS02006109 CONDUIT    914.28     0  03:02      1.82    3.99    1.00
  WS02006116WS02004401 CONDUIT    939.58     0  03:02      1.20    1.30    1.00
  WS02006115WS02006116 CONDUIT    939.44     0  03:02      1.20    1.21    1.00
  WS02006113WS02006111 CONDUIT    915.67     0  03:02      2.60    1.10    1.00
  WS02006112WS02006115 CONDUIT    939.17     0  03:02      1.20    0.55    1.00
  WS02006111WS02006112 CONDUIT    915.89     0  03:03      1.82    0.44    1.00
  WS02006110WS02006113 CONDUIT    915.51     0  03:02      1.82    0.83    1.00
  WS02006109WS02006110 CONDUIT    915.32     0  03:02      1.82    1.76    1.00
  WS02004411WS02004412 CONDUIT    937.22     0  03:03      1.24    1.33    0.92
  WS02004401WS02004402 CONDUIT    939.14     0  03:02      1.20    1.13    1.00
  WS02004413WS02003067 CONDUIT    937.80     0  03:04      1.55    0.40    0.72
  WS02004412WS02004413 CONDUIT    937.72     0  03:04      1.22    0.63    0.95
  WS02004410WS02004411 CONDUIT    937.66     0  03:03      1.23    1.28    0.94
  WS02004409WS02004410 CONDUIT    938.01     0  03:03      1.21    1.21    0.95
  WS02004407WS02004409 CONDUIT    939.04     0  03:03      1.67    0.33    0.68
  WS02004406WS02004407 CONDUIT    939.33     0  03:03      1.60    0.42    0.70
  WS02004405WS02004406 CONDUIT    939.64     0  03:02      1.20    1.85    1.00
  WS02004404WS02004405 CONDUIT    940.27     0  03:03      1.20    9.21    1.00
  WS02004403WS02004404 CONDUIT    940.65     0  03:02      1.20    0.68    1.00
  WS02004402WS02004403 CONDUIT    939.56     0  03:02      1.20    1.35    1.00
  WS02004139WS02001211 CONDUIT    382.92     0  03:16      0.90    0.48    0.64
  WS02004138WS02004139 CONDUIT    396.19     0  00:00      3.65    0.08    0.47
  WS02003067WS02003066 CONDUIT    938.31     0  03:04      1.65    0.30    0.50
  WS02001213WS02003059 CONDUIT    398.61     0  03:15      0.88    0.66    0.87
  WS02001212WS02001213 CONDUIT    395.71     0  03:16      1.32    0.61    0.56
  WS02001211WS02001212 CONDUIT    393.20     0  03:16      0.78    0.30    0.71
  WS02003072WS02003073 CONDUIT   1332.87     0  03:06      1.96    2.88    0.58
  WS02003069WS02003072 CONDUIT   1332.82     0  03:05      1.82    0.64    0.62
  WS02003060WS02003069 CONDUIT   1332.83     0  03:05      2.03    0.52    0.56
  WS02003059WS02003060 CONDUIT    402.10     0  03:15      0.95    0.26    0.77
  HS02004901HS02004770 CONDUIT     37.22     0  03:01      0.10    0.14    0.53
  HS02004876HS02004881 CONDUIT    127.64     0  03:01      1.21    1.36    0.15
  HS02004870HS02004876 CONDUIT    103.11     0  03:01      0.82    0.07    0.18
  HS02004842HS02004848 CONDUIT     16.84     0  03:01      0.07    0.01    0.33
  HS02004837HS02004842 CONDUIT     17.92     0  03:03      0.42    0.01    0.35
  HS02004830HS02004837 CONDUIT     64.65     0  03:01      0.67    0.06    0.14
  HS02004824HS02004830 CONDUIT     64.12     0  03:02      0.62    0.08    0.16
  HS02004817HS02004824 CONDUIT    123.86     0  03:01      0.31    0.06    0.58
  HS02004770HS02004777 CONDUIT    184.97     0  03:01      0.49    0.34    0.54
  HS02004799HS02004480 CONDUIT    444.35     0  03:01      1.07    0.56    0.60
  HS02004792HS02004799 CONDUIT    408.45     0  03:01      1.20    0.25    0.49
  HS02004788HS02004792 CONDUIT    232.94     0  03:02      1.28    0.15    0.26
  HS02004785HS02004788 CONDUIT    181.78     0  03:02      0.91    1.37    0.29
  HS02004777HS02004785 CONDUIT    182.06     0  03:01      0.57    0.22    0.45
  HS02004480HS02004478 CONDUIT    517.37     0  03:01      1.55    2.18    0.48
  HS02004479HS02004480 CONDUIT     77.36     0  03:02      0.30    0.07    0.57
  HS02004862HS02004870 CONDUIT     79.02     0  03:01      0.80    0.09    0.14
  HS02004848HS02004852 CONDUIT     37.84     0  03:01      0.53    0.04    0.10
  HS02004856HS02004862 CONDUIT     54.76     0  03:01      0.59    0.05    0.13
  HS02004852HS02004856 CONDUIT     37.76     0  03:02      0.34    0.04    0.16
  HS02004802HS02004478 CONDUIT    170.17     0  03:04      0.54    0.15    0.48
  HS02004478WS02006287 CONDUIT    677.65     0  03:02      2.11    0.19    0.36
  HS02004817HS02004807 CONDUIT    128.14     0  03:04      0.25    0.08    0.75
  HS02004807HS02004802 CONDUIT    165.30     0  03:04      0.46    0.32    0.53
  YS02001759YS02001757 CONDUIT    622.01     0  02:42      0.79    0.44    1.00
  YS02001762YS02001759 CONDUIT    315.88     0  02:43      0.40    0.36    1.00
  YS02001765YS02001762 CONDUIT    316.71     0  02:43      0.40    0.30    1.00
  YS02001770YS02001767 CONDUIT    316.19     0  02:43      0.40    1.25    1.00
  YS02001774YS02001770 CONDUIT    651.49     0  03:01      0.83    0.42    1.00
  YS02001779YS02001774 CONDUIT    653.04     0  03:01      0.83    0.33    1.00
  YS02001649YS02001757 CONDUIT    877.25     0  02:39      1.12    0.53    1.00
  YS02001767YS02001765 CONDUIT    316.29     0  02:43      0.40    0.40    1.00
  YS02006561YS02001783 CONDUIT   1043.86     0  02:49      2.14    0.54    1.00
  YS02001783YS02001784 CONDUIT   1043.36     0  02:49      2.08    1.44    1.00
  YS02001784YS02001785 CONDUIT   1044.02     0  02:49      2.08    2.43    1.00
  YS02001788YS02001790 CONDUIT   1044.23     0  02:49      2.44    0.77    1.00
  YS02001790YS02001791 CONDUIT   1044.39     0  02:49      2.91    1.14    1.00
  YS02001791YS02001793 CONDUIT   1044.59     0  02:49      5.76    0.45    1.00
  YS02001910YS02001907 CONDUIT    581.05     0  03:02      0.74    0.33    1.00
  YS02001786YS02001788 CONDUIT   1044.21     0  02:49      2.31    2.01    1.00
  YS02001915YS02001910 CONDUIT    580.81     0  03:02      0.74    0.29    1.00
  YS02001918YS02001915 CONDUIT    265.91     0  02:50      0.44    0.15    1.00
  YS02001923YS02001920 CONDUIT    262.75     0  02:50      0.75    0.12    1.00
  YS02001926YS02001923 CONDUIT    227.54     0  02:51      0.86    0.32    0.94
  YS02001929YS02001926 CONDUIT    200.16     0  02:50      0.92    0.10    0.83
  YS02001920YS02001918 CONDUIT    265.47     0  02:50      0.72    0.26    1.00
  YS02001629YS02163301 CONDUIT    206.04     0  02:33      0.26    0.25    1.00
  YS02001619YS02001622 CONDUIT    381.13     0  03:01      0.59    0.56    1.00
  YS02001622YS02001625 CONDUIT    380.83     0  03:01      0.48    0.20    1.00
  YS02001625YS02001629 CONDUIT    196.70     0  02:39      0.25    0.09    1.00
  YS02163301YS02001633 CONDUIT    208.31     0  02:33      0.27    0.20    1.00
  YS02163601YS02164001 CONDUIT    413.76     0  02:39      0.53    0.37    1.00
  YS02164001YS02001641 CONDUIT    413.34     0  02:39      0.53    0.56    1.00
  YS02001641YS02001644 CONDUIT    413.11     0  02:39      0.53    1.34    1.00
  YS02001647YS02001649 CONDUIT    680.00     0  03:01      0.87    0.36    1.00
  YS02006553YS02006556 CONDUIT    709.09     0  03:46      0.90    0.61    1.00
  YS02006556YS02006558 CONDUIT    709.25     0  03:46      0.90    0.56    1.00
  YSB6556YSB1171       CONDUIT     42.87     0  03:02      0.13    0.04    0.82
  YS02001907YS02006553 CONDUIT    709.01     0  03:46      0.79    0.83    1.00
  YS02006558YS02006561 CONDUIT   1044.07     0  02:49      3.69    2.31    1.00
  YS02001633YS02163601 CONDUIT    413.30     0  02:39      0.53    0.43    1.00
  YS02001644YS02001647 CONDUIT    680.97     0  03:01      0.87    0.40    1.00
  YS02001745YS02001748 CONDUIT    553.24     0  02:33      1.46    0.21    0.97
  YS02001748YS02001751 CONDUIT    444.37     0  03:01      1.03    0.22    1.00
  YS02001751YS02001754 CONDUIT    443.86     0  03:01      0.88    0.21    1.00
  YS02001754YS02001757 CONDUIT    442.76     0  03:01      0.56    0.18    1.00
  YS02001882YS02001884 CONDUIT     17.61     0  02:28      0.12    0.02    1.00
  YS02001884YS02001887 CONDUIT     30.14     0  04:11      0.08    0.04    1.00
  YS02001890YS02001895 CONDUIT    518.46     0  03:07      0.66    0.24    1.00
  YS02001895YS02001898 CONDUIT    518.16     0  03:07      0.66    0.90    1.00
  YS02001898YS02001901 CONDUIT    518.53     0  03:07      0.66    0.33    1.00
  YS02001901YS02001904 CONDUIT    518.16     0  03:07      0.66    0.80    1.00
  YS02001904YS02001907 CONDUIT    518.20     0  02:58      0.66    0.18    1.00
  YS02001887YS02001890 CONDUIT    680.34     0  03:01      0.87    1.16    1.00
  YS02001652YS02001649 CONDUIT    502.29     0  03:01      0.64    0.25    1.00
  YS02001655YS02001652 CONDUIT    502.05     0  03:01      0.94    0.24    1.00
  YS02001658YS02001655 CONDUIT    501.11     0  03:01      1.18    0.21    1.00
  YS02001661YS02001658 CONDUIT    594.55     0  02:29      1.52    0.23    1.00
  YS02001664YS02001661 CONDUIT    666.27     0  02:42      1.42    0.21    0.77
  YSB1154YSB6556       CONDUIT     43.25     0  03:01      0.18    0.08    0.73
  YSB1174YSB1171       CONDUIT     36.62     0  03:01      0.11    0.06    0.85
  YSB1171HS02004479    CONDUIT     75.49     0  03:02      0.54    0.05    0.68
  HS02004881HS02006253 CONDUIT    140.46     0  03:01      2.12    0.03    0.54
  YS02001793JiankangQianchi CONDUIT   1081.52     0  02:20     16.72    0.09    1.00
  YS02001757CaochengTiaoxuchi CONDUIT   1680.26     0  02:41      2.17    0.74    1.00
  WSF200WS02003060     CONDUIT    938.82     0  03:04      1.93    0.21    0.45
  1                    CONDUIT   1334.78     0  03:07      3.59    0.46    0.48
  CC-Pump-1            PUMP       200.00     0  03:00              1.00
  CC-Pump-2            PUMP       200.00     0  03:00              1.00
  JK-Pump-1            PUMP       300.00     0  00:00              1.00
  JK-Pump-2            PUMP       683.00     0  00:00              1.00
  XR-Pump-1            PUMP        95.00     0  00:00              1.00
  XR-Pump-2            PUMP        95.00     0  00:00              1.00
  XR-Pump-3            PUMP        95.00     0  00:00              1.00
  XR-Pump-4            PUMP        95.00     0  00:00              1.00
  
  
  ***************************
  Flow Classification Summary
  ***************************
  
  -------------------------------------------------------------------------------------
                      Adjusted    ---------- Fraction of Time in Flow Class ---------- 
                       /Actual         Up    Down  Sub   Sup   Up    Down  Norm  Inlet 
  Conduit               Length    Dry  Dry   Dry   Crit  Crit  Crit  Crit  Ltd   Ctrl  
  -------------------------------------------------------------------------------------
  WS02003066WSF200        1.00   0.02  0.05  0.00  0.00  0.94  0.00  0.00  0.39  0.00
  WS02006287WS02006284    1.00   0.02  0.01  0.00  0.66  0.31  0.00  0.00  0.65  0.00
  WS02006284WS02006280    1.00   0.03  0.00  0.00  0.00  0.00  0.00  0.97  0.00  0.00
  WS02006280WS02006229    1.00   0.03  0.00  0.00  0.01  0.02  0.00  0.94  0.01  0.00
  WS02006229WS02006228    1.00   0.00  0.00  0.00  1.00  0.00  0.00  0.00  0.00  0.00
  WS02006256WS02006235    1.00   0.00  0.00  0.00  1.00  0.00  0.00  0.00  0.00  0.00
  WS02006253WS02006251    1.00   0.01  0.01  0.00  0.97  0.00  0.00  0.00  0.00  0.00
  WS02006252WS02006251    1.00   0.16  0.00  0.00  0.14  0.00  0.70  0.00  0.00  0.00
  WS02006251WS02006249    1.00   0.00  0.00  0.00  1.00  0.00  0.00  0.00  0.23  0.00
  WS02006249WS02006248    1.00   0.00  0.01  0.00  0.91  0.00  0.08  0.00  0.00  0.00
  WS02006248WS02006247    1.00   0.01  0.00  0.00  0.98  0.00  0.00  0.01  0.12  0.00
  WS02006247WS02006245    1.00   0.01  0.00  0.00  0.97  0.00  0.00  0.02  0.00  0.00
  WS02006245WS02006243    1.00   0.00  0.00  0.00  0.95  0.00  0.00  0.04  0.02  0.00
  WS02006243WS02006242    1.00   0.00  0.00  0.00  1.00  0.00  0.00  0.00  0.22  0.00
  WS02006242WS02006240    1.00   0.00  0.00  0.00  1.00  0.00  0.00  0.00  0.00  0.00
  WS02006240WS02006239    1.00   0.00  0.00  0.00  0.95  0.00  0.00  0.05  0.01  0.00
  WS02006239WS02006238    1.00   0.00  0.00  0.00  1.00  0.00  0.00  0.00  0.15  0.00
  WS02006238WS02006235    1.00   0.00  0.00  0.00  1.00  0.00  0.00  0.00  0.00  0.00
  WS02006235WS02006234    1.00   0.00  0.00  0.00  0.96  0.00  0.04  0.00  0.00  0.00
  WS02006234WS02006232    1.00   0.00  0.00  0.00  1.00  0.00  0.00  0.00  0.11  0.00
  WS02006232WS02006231    1.00   0.00  0.00  0.00  1.00  0.00  0.00  0.00  0.00  0.00
  WS02006231WS02006230    1.00   0.00  0.00  0.00  0.73  0.00  0.27  0.00  0.00  0.00
  WS02006230WS02006229    1.00   0.00  0.00  0.00  1.00  0.00  0.00  0.00  0.01  0.00
  WS02006228WS02006109    1.00   0.00  0.00  0.00  1.00  0.00  0.00  0.00  0.00  0.00
  WS02006116WS02004401    1.00   0.01  0.00  0.00  0.99  0.00  0.00  0.00  0.01  0.00
  WS02006115WS02006116    1.00   0.01  0.00  0.00  0.98  0.00  0.00  0.02  0.01  0.00
  WS02006113WS02006111    1.00   0.01  0.00  0.00  0.03  0.96  0.00  0.00  0.13  0.00
  WS02006112WS02006115    1.00   0.01  0.00  0.00  0.99  0.00  0.00  0.00  0.00  0.00
  WS02006111WS02006112    1.00   0.01  0.00  0.00  0.99  0.00  0.00  0.00  0.85  0.00
  WS02006110WS02006113    1.00   0.00  0.00  0.00  0.99  0.00  0.00  0.00  0.00  0.00
  WS02006109WS02006110    1.00   0.00  0.00  0.00  1.00  0.00  0.00  0.00  0.00  0.00
  WS02004411WS02004412    1.00   0.05  0.00  0.00  0.95  0.00  0.00  0.00  0.00  0.00
  WS02004401WS02004402    1.00   0.01  0.00  0.00  0.99  0.00  0.00  0.00  0.01  0.00
  WS02004413WS02003067    1.00   0.05  0.01  0.00  0.00  0.00  0.94  0.00  0.00  0.00
  WS02004412WS02004413    1.00   0.05  0.00  0.00  0.95  0.00  0.00  0.00  0.00  0.00
  WS02004410WS02004411    1.00   0.05  0.00  0.00  0.95  0.00  0.00  0.00  0.00  0.00
  WS02004409WS02004410    1.00   0.05  0.00  0.00  0.95  0.00  0.00  0.00  0.00  0.00
  WS02004407WS02004409    1.00   0.05  0.00  0.00  0.95  0.00  0.00  0.00  0.80  0.00
  WS02004406WS02004407    1.00   0.00  0.05  0.00  0.95  0.00  0.00  0.00  0.00  0.00
  WS02004405WS02004406    1.00   0.00  0.00  0.00  1.00  0.00  0.00  0.00  0.02  0.00
  WS02004404WS02004405    1.00   0.00  0.00  0.00  1.00  0.00  0.00  0.00  0.00  0.00
  WS02004403WS02004404    1.00   0.00  0.01  0.00  0.99  0.00  0.00  0.00  0.02  0.00
  WS02004402WS02004403    1.00   0.01  0.00  0.00  0.99  0.00  0.00  0.00  0.00  0.00
  WS02004139WS02001211    1.00   0.00  0.00  0.00  1.00  0.00  0.00  0.00  0.00  0.00
  WS02004138WS02004139    1.00   0.00  0.00  0.00  1.00  0.00  0.00  0.00  1.00  0.00
  WS02003067WS02003066    1.00   0.06  0.00  0.00  0.94  0.00  0.00  0.00  0.00  0.00
  WS02001213WS02003059    1.00   0.00  0.00  0.00  1.00  0.00  0.00  0.00  0.00  0.00
  WS02001212WS02001213    1.00   0.00  0.00  0.00  0.93  0.00  0.06  0.00  0.00  0.00
  WS02001211WS02001212    1.00   0.00  0.00  0.00  1.00  0.00  0.00  0.00  0.00  0.00
  WS02003072WS02003073    1.00   0.00  0.00  0.00  0.00  0.00  0.00  1.00  0.00  0.00
  WS02003069WS02003072    1.00   0.00  0.00  0.00  1.00  0.00  0.00  0.00  0.11  0.00
  WS02003060WS02003069    1.00   0.00  0.00  0.00  0.99  0.01  0.00  0.00  0.09  0.00
  WS02003059WS02003060    1.00   0.00  0.00  0.00  1.00  0.00  0.00  0.00  0.00  0.00
  HS02004901HS02004770    1.00   0.03  0.00  0.00  0.97  0.00  0.00  0.00  0.00  0.00
  HS02004876HS02004881    1.00   0.01  0.00  0.00  0.93  0.07  0.00  0.00  0.00  0.00
  HS02004870HS02004876    1.00   0.00  0.00  0.00  1.00  0.00  0.00  0.00  0.95  0.00
  HS02004842HS02004848    1.00   0.00  0.03  0.00  0.97  0.00  0.00  0.00  0.54  0.00
  HS02004837HS02004842    1.00   0.00  0.00  0.00  1.00  0.00  0.00  0.00  0.11  0.00
  HS02004830HS02004837    1.00   0.00  0.00  0.00  1.00  0.00  0.00  0.00  0.99  0.00
  HS02004824HS02004830    1.00   0.00  0.00  0.00  1.00  0.00  0.00  0.00  0.01  0.00
  HS02004817HS02004824    1.00   0.00  0.00  0.00  1.00  0.00  0.00  0.00  0.97  0.00
  HS02004770HS02004777    1.00   0.00  0.03  0.00  0.97  0.00  0.00  0.00  0.03  0.00
  HS02004799HS02004480    1.00   0.00  0.01  0.00  0.96  0.00  0.03  0.00  0.00  0.00
  HS02004792HS02004799    1.00   0.00  0.00  0.00  1.00  0.00  0.00  0.00  0.98  0.00
  HS02004788HS02004792    1.00   0.00  0.00  0.00  1.00  0.00  0.00  0.00  0.98  0.00
  HS02004785HS02004788    1.00   0.00  0.00  0.00  1.00  0.00  0.00  0.00  0.00  0.00
  HS02004777HS02004785    1.00   0.00  0.00  0.00  1.00  0.00  0.00  0.00  0.12  0.00
  HS02004480HS02004478    1.00   0.03  0.00  0.00  0.74  0.00  0.00  0.23  0.00  0.00
  HS02004479HS02004480    1.00   0.01  0.00  0.00  0.99  0.00  0.00  0.00  0.12  0.00
  HS02004862HS02004870    1.00   0.00  0.00  0.00  1.00  0.00  0.00  0.00  0.04  0.00
  HS02004848HS02004852    1.00   0.03  0.00  0.00  0.97  0.00  0.00  0.00  0.64  0.00
  HS02004856HS02004862    1.00   0.00  0.04  0.00  0.96  0.00  0.00  0.00  0.83  0.00
  HS02004852HS02004856    1.00   0.03  0.00  0.00  0.97  0.00  0.00  0.00  0.81  0.00
  HS02004802HS02004478    1.00   0.03  0.00  0.00  0.97  0.00  0.00  0.00  0.02  0.00
  HS02004478WS02006287    1.00   0.04  0.00  0.00  0.80  0.17  0.00  0.00  0.65  0.00
  HS02004817HS02004807    1.00   0.00  0.03  0.00  0.97  0.00  0.00  0.00  0.01  0.00
  HS02004807HS02004802    1.00   0.03  0.00  0.00  0.97  0.00  0.00  0.00  0.00  0.00
  YS02001759YS02001757    1.00   0.00  0.00  0.00  1.00  0.00  0.00  0.00  0.16  0.00
  YS02001762YS02001759    1.00   0.00  0.00  0.00  1.00  0.00  0.00  0.00  0.03  0.00
  YS02001765YS02001762    1.00   0.00  0.00  0.00  1.00  0.00  0.00  0.00  0.14  0.00
  YS02001770YS02001767    1.00   0.00  0.00  0.00  1.00  0.00  0.00  0.00  0.00  0.00
  YS02001774YS02001770    1.00   0.00  0.03  0.00  0.97  0.00  0.00  0.00  0.03  0.00
  YS02001779YS02001774    1.00   0.00  0.00  0.00  1.00  0.00  0.00  0.00  0.19  0.00
  YS02001649YS02001757    1.00   0.00  0.00  0.00  1.00  0.00  0.00  0.00  0.16  0.00
  YS02001767YS02001765    1.00   0.00  0.00  0.00  1.00  0.00  0.00  0.00  0.00  0.00
  YS02006561YS02001783    1.00   0.04  0.00  0.00  0.35  0.60  0.00  0.00  0.45  0.00
  YS02001783YS02001784    1.00   0.00  0.04  0.00  0.96  0.00  0.00  0.00  0.01  0.00
  YS02001784YS02001785    1.00   0.00  0.00  0.00  1.00  0.00  0.00  0.00  0.18  0.00
  YS02001788YS02001790    1.00   0.00  0.00  0.00  0.41  0.59  0.00  0.00  0.36  0.00
  YS02001790YS02001791    1.00   0.00  0.00  0.00  0.39  0.61  0.00  0.00  0.44  0.00
  YS02001791YS02001793    1.00   0.00  0.00  0.00  0.43  0.57  0.00  0.00  0.03  0.00
  YS02001910YS02001907    1.00   0.00  0.00  0.00  0.99  0.00  0.00  0.01  0.12  0.00
  YS02001786YS02001788    1.00   0.00  0.00  0.00  0.39  0.61  0.00  0.00  0.00  0.00
  YS02001915YS02001910    1.00   0.00  0.00  0.00  0.99  0.01  0.00  0.00  0.16  0.00
  YS02001918YS02001915    1.00   0.00  0.00  0.00  0.99  0.00  0.00  0.00  0.53  0.00
  YS02001923YS02001920    1.00   0.00  0.00  0.00  1.00  0.00  0.00  0.00  0.82  0.00
  YS02001926YS02001923    1.00   0.00  0.02  0.00  0.14  0.00  0.84  0.00  0.00  0.00
  YS02001929YS02001926    1.00   0.00  0.03  0.00  0.97  0.00  0.00  0.00  0.74  0.00
  YS02001920YS02001918    1.00   0.00  0.00  0.00  1.00  0.00  0.00  0.00  0.00  0.00
  YS02001629YS02163301    1.00   0.04  0.00  0.00  0.96  0.00  0.00  0.00  0.00  0.00
  YS02001619YS02001622    1.00   0.03  0.00  0.00  0.97  0.00  0.00  0.00  0.00  0.00
  YS02001622YS02001625    1.00   0.03  0.00  0.00  0.97  0.00  0.00  0.00  0.05  0.00
  YS02001625YS02001629    1.00   0.03  0.01  0.00  0.94  0.00  0.02  0.00  0.00  0.00
  YS02163301YS02001633    1.00   0.00  0.04  0.00  0.96  0.00  0.00  0.00  0.00  0.00
  YS02163601YS02164001    1.00   0.00  0.02  0.00  0.98  0.00  0.00  0.00  0.00  0.00
  YS02164001YS02001641    1.00   0.00  0.02  0.00  0.98  0.00  0.00  0.00  0.06  0.00
  YS02001641YS02001644    1.00   0.00  0.00  0.00  1.00  0.00  0.00  0.00  0.00  0.00
  YS02001647YS02001649    1.00   0.00  0.04  0.00  0.96  0.00  0.00  0.00  0.01  0.00
  YS02006553YS02006556    1.00   0.00  0.00  0.00  1.00  0.00  0.00  0.00  0.03  0.00
  YS02006556YS02006558    1.00   0.00  0.00  0.00  1.00  0.00  0.00  0.00  0.00  0.00
  YSB6556YSB1171          1.00   0.01  0.02  0.00  0.97  0.00  0.00  0.00  0.00  0.00
  YS02001907YS02006553    1.00   0.00  0.01  0.00  0.99  0.00  0.00  0.00  0.00  0.00
  YS02006558YS02006561    1.00   0.04  0.00  0.00  0.14  0.81  0.00  0.00  0.46  0.00
  YS02001633YS02163601    1.00   0.00  0.00  0.00  1.00  0.00  0.00  0.00  0.15  0.00
  YS02001644YS02001647    1.00   0.00  0.04  0.00  0.96  0.00  0.00  0.00  0.00  0.00
  YS02001745YS02001748    1.00   0.00  0.00  0.00  0.92  0.00  0.00  0.08  0.04  0.00
  YS02001748YS02001751    1.00   0.00  0.00  0.00  0.97  0.03  0.00  0.00  0.15  0.00
  YS02001751YS02001754    1.00   0.00  0.00  0.00  0.95  0.00  0.00  0.05  0.02  0.00
  YS02001754YS02001757    1.00   0.00  0.00  0.00  1.00  0.00  0.00  0.00  0.18  0.00
  YS02001882YS02001884    1.00   0.04  0.00  0.00  0.96  0.00  0.00  0.00  0.00  0.00
  YS02001884YS02001887    1.00   0.01  0.01  0.00  0.97  0.00  0.00  0.00  0.00  0.00
  YS02001890YS02001895    1.00   0.00  0.04  0.00  0.96  0.00  0.00  0.00  0.00  0.00
  YS02001895YS02001898    1.00   0.04  0.00  0.00  0.95  0.00  0.01  0.00  0.00  0.00
  YS02001898YS02001901    1.00   0.04  0.00  0.00  0.96  0.00  0.00  0.00  0.01  0.00
  YS02001901YS02001904    1.00   0.04  0.00  0.00  0.96  0.00  0.00  0.00  0.00  0.00
  YS02001904YS02001907    1.00   0.00  0.04  0.00  0.96  0.00  0.00  0.00  0.00  0.00
  YS02001887YS02001890    1.00   0.00  0.00  0.00  0.99  0.00  0.01  0.00  0.00  0.00
  YS02001652YS02001649    1.00   0.00  0.00  0.00  1.00  0.00  0.00  0.00  0.17  0.00
  YS02001655YS02001652    1.00   0.00  0.00  0.00  0.95  0.00  0.00  0.05  0.02  0.00
  YS02001658YS02001655    1.00   0.00  0.03  0.00  0.94  0.03  0.00  0.00  0.10  0.00
  YS02001661YS02001658    1.00   0.03  0.00  0.00  0.92  0.05  0.00  0.00  0.11  0.00
  YS02001664YS02001661    1.00   0.03  0.00  0.00  0.93  0.04  0.00  0.00  0.20  0.00
  YSB1154YSB6556          1.00   0.03  0.00  0.00  0.97  0.00  0.00  0.00  0.02  0.00
  YSB1174YSB1171          1.00   0.01  0.01  0.00  0.98  0.00  0.00  0.00  0.00  0.00
  YSB1171HS02004479       1.00   0.01  0.00  0.00  0.99  0.00  0.00  0.00  0.10  0.00
  HS02004881HS02006253    1.00   0.01  0.00  0.00  0.78  0.02  0.00  0.19  0.60  0.00
  YS02001793JiankangQianchi    1.00   0.00  0.00  0.00  0.66  0.34  0.00  0.00  0.37  0.00
  YS02001757CaochengTiaoxuchi    1.00   0.00  0.06  0.00  0.94  0.00  0.00  0.00  0.00  0.00
  WSF200WS02003060        1.00   0.00  0.02  0.00  0.97  0.01  0.00  0.00  0.39  0.00
  1                       1.00   0.00  0.00  0.00  0.00  1.00  0.00  0.00  0.47  0.00
  
  
  *************************
  Conduit Surcharge Summary
  *************************
  
  ----------------------------------------------------------------------------
                                                           Hours        Hours 
                         --------- Hours Full --------   Above Full   Capacity
  Conduit                Both Ends  Upstream  Dnstream   Normal Flow   Limited
  ----------------------------------------------------------------------------
  WS02006229WS02006228        3.98      4.03      3.98      4.98         3.98
  WS02006256WS02006235        5.90      5.90      6.66      4.56         0.01
  WS02006253WS02006251        1.90      1.90      1.97      0.01         0.01
  WS02006252WS02006251        1.50      1.50      2.41      1.99         0.01
  WS02006251WS02006249        1.92      1.92      2.02      1.20         1.04
  WS02006249WS02006248        1.95      1.95      2.02      4.03         0.01
  WS02006248WS02006247        2.01      2.01      2.26      0.01         0.01
  WS02006247WS02006245        2.25      2.32      2.25      4.35         2.11
  WS02006245WS02006243        2.31      2.32      2.46      0.26         0.24
  WS02006243WS02006242        2.50      2.50      3.21      0.01         0.01
  WS02006242WS02006240        3.10      3.10      3.35      2.18         0.01
  WS02006240WS02006239        3.13      3.14      3.27      0.91         0.50
  WS02006239WS02006238        3.46      3.47      3.60      0.99         0.59
  WS02006238WS02006235        3.58      3.58      3.71      0.01         0.03
  WS02006235WS02006234        3.32      3.32      3.53      5.89         0.01
  WS02006234WS02006232        3.45      3.45      3.88      0.86         0.85
  WS02006232WS02006231        2.41      2.41      3.88      1.18         0.01
  WS02006231WS02006230        1.80      1.80      2.53      5.94         0.01
  WS02006230WS02006229        4.39      4.82      4.39      6.05         4.39
[...]
  YS02001770YS02001767        5.69      5.69      5.69      0.21         0.72
  YS02001774YS02001770        5.68      5.68      5.74      0.01         0.01
  YS02001779YS02001774        5.56      5.56      5.74      0.01         0.01
  YS02001649YS02001757        5.76      5.76      5.86      0.01         0.01
  YS02001767YS02001765        5.69      5.69      5.72      0.01         0.01
  YS02006561YS02001783        0.90      0.90      1.43      0.01         0.01
  YS02001783YS02001784        1.41      1.43      1.41      1.46         1.29
  YS02001784YS02001785        1.35      1.41      1.35      2.50         1.35
  YS02001788YS02001790        1.17      1.17      2.19      0.01         0.01
  YS02001790YS02001791        2.18      2.19      2.28      1.17         1.15
  YS02001791YS02001793        2.28      2.28      2.65      0.01         0.01
  YS02001910YS02001907        1.28      1.28      1.88      0.01         0.01
  YS02001786YS02001788        1.17      1.35      1.17      2.05         1.17
  YS02001915YS02001910        1.09      1.09      1.28      0.01         0.01
  YS02001918YS02001915        0.88      0.88      1.09      0.01         0.01
  YS02001923YS02001920        0.74      0.74      0.91      0.01         0.01
  YS02001920YS02001918        0.88      0.88      0.91      0.01         0.01
  YS02001629YS02163301        5.67      5.67      5.68      0.01         0.01
  YS02001619YS02001622        5.37      5.37      5.41      0.01         0.01
  YS02001622YS02001625        5.41      5.41      5.64      0.01         0.01
  YS02001625YS02001629        5.38      5.38      5.64      0.01         0.01
  YS02163301YS02001633        5.68      5.68      5.72      0.01         0.01
  YS02163601YS02164001        5.72      5.72      5.75      0.01         0.01
  YS02164001YS02001641        5.72      5.72      5.72      0.01         0.03
  YS02001641YS02001644        5.72      5.72      5.73      1.72         1.93
  YS02001647YS02001649        5.62      5.62      5.76      0.01         0.01
  YS02006553YS02006556        1.51      1.51      1.97      0.01         0.01
  YS02006556YS02006558        1.67      1.67      2.07      0.01         0.01
  YSB6556YSB1171              0.01      0.01      0.07      0.01         0.01
  YS02001907YS02006553        2.54      2.54      2.75      0.01         0.01
  YS02006558YS02006561        1.03      1.47      1.03      2.35         1.03
  YS02001633YS02163601        5.71      5.71      5.75      0.01         0.01
  YS02001644YS02001647        5.62      5.62      5.73      0.01         0.01
  YS02001745YS02001748        0.01      0.01      5.22      0.01         0.01
  YS02001748YS02001751        5.27      5.27      5.38      0.01         0.01
  YS02001751YS02001754        5.38      5.38      5.57      0.01         0.01
  YS02001754YS02001757        5.61      5.61      5.86      0.01         0.01
  YS02001882YS02001884        1.11      1.11      1.14      0.01         0.01
  YS02001884YS02001887        1.19      1.19      1.21      0.01         0.01
  YS02001890YS02001895        1.07      1.07      1.30      0.01         0.01
  YS02001895YS02001898        1.06      1.06      1.07      0.01         0.01
  YS02001898YS02001901        1.08      1.08      1.18      0.01         0.01
  YS02001901YS02001904        1.16      1.16      1.18      0.01         0.01
  YS02001904YS02001907        1.16      1.16      1.99      0.01         0.01
  YS02001887YS02001890        1.24      1.24      1.27      0.16         0.01
  YS02001652YS02001649        5.63      5.63      5.76      0.01         0.01
  YS02001655YS02001652        5.40      5.40      5.61      0.01         0.01
  YS02001658YS02001655        5.25      5.25      5.40      0.01         0.01
  YS02001661YS02001658        0.14      0.14      5.25      0.01         0.01
  YS02001664YS02001661        0.01      0.01      1.41      0.01         0.01
  HS02004881HS02006253        0.01      0.01      1.27      0.01         0.01
  YS02001793JiankangQianchi        2.56      2.56      4.20      0.01         0.01
  YS02001757CaochengTiaoxuchi        5.11      5.11      5.86      0.01         0.01
  
  
  ***************
  Pumping Summary
  ***************
  
  ---------------------------------------------------------------------------------------------------------
                                                  Min       Avg       Max     Total     Power    % Time Off
                        Percent   Number of      Flow      Flow      Flow    Volume     Usage    Pump Curve
  Pump                 Utilized   Start-Ups       LPS       LPS       LPS  10^6 ltr     Kw-hr    Low   High
  ---------------------------------------------------------------------------------------------------------
  CC-Pump-1               63.82           2      0.00    180.86    200.00     3.180      3.14    0.0    0.0
  CC-Pump-2               40.41           5      0.00     96.36    200.00     1.320      1.72    0.0    0.0
  JK-Pump-1               63.82           4      0.00    231.30    300.00     4.147     59.15    0.0    0.0
  JK-Pump-2               53.19           4      0.00    420.09    683.00     6.446     84.39    0.0   97.5
  XR-Pump-1               97.87           2      0.00     94.32     95.00     2.565     25.51    0.0    0.0
  XR-Pump-2               97.87           2      0.00     94.32     95.00     2.565     25.51    0.0    0.0
  XR-Pump-3               95.75           3      0.00     92.19     95.00     2.394     21.76    0.0    0.0
  XR-Pump-4               95.75           3      0.00     92.19     95.00     2.394     21.76    0.0    0.0
  
  
  ***************************
  Link Pollutant Load Summary
  ***************************
  
  ------------------------------------------------------------------------------------------
                                 COD            SS            TN            TP         NH4-N
  Link                            kg            kg            kg            kg            kg
  ------------------------------------------------------------------------------------------
  WS02003066WSF200           926.299      1727.774        23.918         2.071        12.550
  WS02006287WS02006284       319.497       608.155        10.315         1.015         5.679
  WS02006284WS02006280       319.982       608.951        10.361         1.021         5.708
  WS02006280WS02006229       319.923       608.830        10.359         1.020         5.706
  WS02006229WS02006228       922.362      1720.644        23.333         1.990        12.175
  WS02006256WS02006235       224.199       411.202         5.121         0.408         2.615
  WS02006253WS02006251        61.371       120.710         1.340         0.100         0.663
  WS02006252WS02006251       392.240       721.044         8.047         0.571         3.939
  WS02006251WS02006249       445.833       827.563         9.258         0.664         4.544
  WS02006249WS02006248       388.637       719.174         8.086         0.579         3.970
  WS02006248WS02006247       388.074       718.158         8.076         0.578         3.966
  WS02006247WS02006245       387.339       716.834         8.060         0.577         3.958
  WS02006245WS02006243       386.393       715.189         8.036         0.575         3.946
  WS02006243WS02006242       385.467       713.520         8.019         0.574         3.937
  WS02006242WS02006240       384.124       711.107         7.989         0.572         3.923
  WS02006240WS02006239       383.274       709.554         7.974         0.571         3.916
  WS02006239WS02006238       383.148       709.174         7.995         0.574         3.930
  WS02006238WS02006235       383.006       708.786         8.005         0.576         3.937
  WS02006235WS02006234       605.262      1116.725        13.048         0.976         6.507
  WS02006234WS02006232       604.898      1116.060        13.045         0.976         6.507
  WS02006232WS02006231       604.295      1114.975        13.031         0.975         6.500
  WS02006231WS02006230       603.608      1113.723        13.018         0.974         6.494
  WS02006230WS02006229       603.045      1112.834        12.996         0.972         6.481
  WS02006228WS02006109       921.798      1719.632        23.319         1.989        12.168
  WS02006116WS02004401       937.127      1747.234        24.200         2.094        12.698
  WS02006115WS02006116       938.057      1748.877        24.226         2.097        12.711
  WS02006113WS02006111       928.109      1729.340        24.066         2.085        12.640
  WS02006112WS02006115       939.104      1750.679        24.266         2.101        12.734
  WS02006111WS02006112       927.898      1729.001        24.062         2.085        12.639
  WS02006110WS02006113       928.731      1730.439        24.088         2.087        12.653
  WS02006109WS02006110       929.696      1732.129        24.127         2.091        12.675
  WS02004411WS02004412       929.705      1733.778        24.047         2.084        12.623
  WS02004401WS02004402       936.086      1745.416        24.162         2.091        12.676
  WS02004413WS02003067       926.971      1729.037        23.935         2.072        12.559
  WS02004412WS02004413       928.584      1731.795        24.011         2.081        12.604
  WS02004410WS02004411       930.669      1735.508        24.075         2.086        12.638
  WS02004409WS02004410       931.660      1737.267        24.107         2.090        12.656
  WS02004407WS02004409       932.466      1738.725        24.128         2.091        12.667
  WS02004406WS02004407       932.725      1739.243        24.129         2.091        12.667
  WS02004405WS02004406       934.270      1741.936        24.202         2.099        12.710
  WS02004404WS02004405       934.880      1743.111        24.191         2.096        12.700
  WS02004403WS02004404       934.323      1742.315        24.102         2.085        12.643
  WS02004402WS02004403       935.195      1743.840        24.135         2.088        12.662
  WS02004139WS02001211      1382.521      2295.454       112.243        13.701        69.188
  WS02004138WS02004139      1388.873      2306.066       112.733        13.761        69.488
  WS02003067WS02003066       926.518      1728.169        23.926         2.072        12.555
  WS02001213WS02003059      1415.283      2346.890       115.650        14.131        71.329
  WS02001212WS02001213      1424.548      2362.247       116.399        14.223        71.791
  WS02001211WS02001212      1426.761      2365.863       116.590        14.246        71.909
  WS02003072WS02003073      2441.134      4232.686       149.506        17.450        90.107
  WS02003069WS02003072      2446.543      4241.503       149.958        17.506        90.386
  WS02003060WS02003069      2449.170      4246.055       150.102        17.522        90.472
  WS02003059WS02003060      1412.080      2341.465       115.423        14.104        71.191
  HS02004901HS02004770        13.093        25.473         0.248         0.019         0.116
  HS02004876HS02004881        45.517        90.352         0.999         0.073         0.491
  HS02004870HS02004876        34.384        68.108         0.798         0.060         0.395
  HS02004842HS02004848         6.456        12.343         0.134         0.009         0.062
  HS02004837HS02004842        11.055        19.634         0.603         0.068         0.356
  HS02004830HS02004837        70.297       122.725         4.643         0.552         2.827
  HS02004824HS02004830        71.069       123.982         4.715         0.561         2.871
  HS02004817HS02004824        97.164       176.409         5.254         0.596         3.135
  HS02004770HS02004777        49.662        97.713         1.021         0.069         0.472
  HS02004799HS02004480       162.330       310.851         4.263         0.379         2.210
  HS02004792HS02004799       147.278       280.132         4.028         0.367         2.105
  HS02004788HS02004792        82.819       157.691         2.666         0.255         1.440
  HS02004785HS02004788        51.123       100.053         1.172         0.089         0.567
  HS02004777HS02004785        50.448        98.946         1.112         0.081         0.530
  HS02004480HS02004478       204.824       395.196         4.971         0.429         2.543
  HS02004479HS02004480        46.124        90.108         1.036         0.091         0.538
  HS02004862HS02004870        25.800        50.342         0.628         0.050         0.314
  HS02004848HS02004852        10.252        19.885         0.210         0.014         0.097
  HS02004856HS02004862        17.525        34.751         0.350         0.023         0.164
  HS02004852HS02004856        10.255        19.890         0.210         0.014         0.097
  HS02004802HS02004478       115.344       214.058         5.398         0.592         3.169
  HS02004478WS02006287       319.704       608.513        10.332         1.017         5.689
  HS02004817HS02004807        95.861       174.318         5.130         0.581         3.057
  HS02004807HS02004802       115.601       214.459         5.430         0.596         3.190
  YS02001759YS02001757       382.538       704.091         7.613         0.528         3.716
  YS02001762YS02001759       163.312       298.918         3.495         0.246         1.731
  YS02001765YS02001762       163.761       300.296         3.523         0.248         1.747
  YS02001770YS02001767       163.905       302.161         3.338         0.220         1.622
  YS02001774YS02001770       232.906       455.789         4.468         0.296         2.158
  YS02001779YS02001774       231.791       453.507         4.549         0.310         2.216
  YS02001649YS02001757       303.898       545.490         6.107         0.424         2.933
  YS02001767YS02001765       164.620       302.372         3.552         0.250         1.763
  YS02006561YS02001783      1026.264      1902.637        21.510         1.606        10.704
  YS02001783YS02001784      1026.117      1902.401        21.506         1.605        10.702
  YS02001784YS02001785      1033.412      1914.075        22.218         1.694        11.147
  YS02001788YS02001790      1034.008      1915.031        22.294         1.704        11.196
  YS02001790YS02001791      1035.081      1916.741        22.408         1.719        11.267
  YS02001791YS02001793      1035.026      1916.644        22.404         1.718        11.265
  YS02001910YS02001907       391.240       721.497         9.401         0.720         4.819
  YS02001786YS02001788      1033.586      1914.357        22.245         1.698        11.165
  YS02001915YS02001910       391.308       721.610         9.353         0.713         4.787
  YS02001918YS02001915       186.225       328.350         5.141         0.468         2.770
  YS02001923YS02001920       165.995       295.785         3.186         0.224         1.548
  YS02001926YS02001923       164.653       293.536         3.104         0.215         1.498
  YS02001929YS02001926       164.221       292.810         3.066         0.210         1.475
  YS02001920YS02001918       185.813       327.462         5.105         0.464         2.748
  YS02001629YS02163301        96.160       170.038         2.030         0.131         0.947
  YS02001619YS02001622       175.879       321.143         3.602         0.236         1.684
  YS02001622YS02001625       174.681       319.237         3.573         0.234         1.671
  YS02001625YS02001629        97.243       171.809         2.054         0.133         0.958
  YS02163301YS02001633        96.519       170.906         2.032         0.132         0.949
  YS02163601YS02164001       405.729       733.162         7.899         0.562         3.784
  YS02164001YS02001641       405.194       732.253         7.878         0.560         3.772
  YS02001641YS02001644       405.240       732.251         7.874         0.560         3.769
  YS02001647YS02001649       398.674       729.839         7.885         0.551         3.760
  YS02006553YS02006556       692.403      1273.180        14.885         1.140         7.492
  YS02006556YS02006558       692.305      1272.985        14.856         1.136         7.472
  YSB6556YSB1171              26.521        51.967         0.537         0.045         0.272
  YS02001907YS02006553       692.563      1273.502        14.895         1.141         7.497
  YS02006558YS02006561      1026.254      1902.614        21.510         1.605        10.704
  YS02001633YS02163601       406.470       734.321         7.880         0.558         3.768
  YS02001644YS02001647       404.733       740.823         7.985         0.559         3.806
  YS02001745YS02001748       248.237       464.584         5.331         0.360         2.628
  YS02001748YS02001751       247.099       462.268         5.423         0.375         2.694
  YS02001751YS02001754       246.108       460.636         5.404         0.374         2.686
  YS02001754YS02001757       246.869       461.772         5.570         0.397         2.793
  YS02001882YS02001884         3.606         6.261         0.072         0.006         0.036
  YS02001884YS02001887         6.989        12.358         0.138         0.011         0.069
  YS02001890YS02001895       450.939       846.413         8.301         0.624         4.049
  YS02001895YS02001898       450.784       846.217         8.295         0.624         4.046
  YS02001898YS02001901       450.581       845.869         8.291         0.623         4.043
  YS02001901YS02001904       450.405       845.615         8.296         0.624         4.048
  YS02001904YS02001907       450.581       845.876         8.348         0.631         4.082
  YS02001887YS02001890       468.216       880.670         8.645         0.653         4.222
  YS02001652YS02001649       195.188       363.642         3.921         0.283         1.840
  YS02001655YS02001652       195.676       364.450         3.934         0.284         1.846
  YS02001658YS02001655       194.999       363.376         3.843         0.272         1.788
  YS02001661YS02001658       198.317       369.347         3.910         0.276         1.819
  YS02001664YS02001661       218.288       402.198         4.362         0.307         2.025
  YSB1154YSB6556              26.084        51.270         0.486         0.038         0.239
  YSB1174YSB1171              18.020        35.561         0.361         0.029         0.180
  YSB1171HS02004479           46.089        90.054         1.039         0.092         0.540
  HS02004881HS02006253        51.780       103.241         1.106         0.080         0.541
  YS02001793JiankangQianchi      1036.058      1918.304        22.454         1.724        11.294
  YS02001757CaochengTiaoxuchi       665.916      1210.362        13.848         0.976         6.781
  WSF200WS02003060           926.115      1727.366        23.927         2.072        12.557
  1                         2448.058      4242.728       150.431        17.570        90.696
  CC-Pump-1                  275.957       507.093         5.663         0.401         2.772
  CC-Pump-2                  116.310       214.000         2.385         0.170         1.168
  JK-Pump-1                  308.281       571.797         6.799         0.532         3.443
  JK-Pump-2                  558.003      1054.455        11.308         0.836         5.590
  XR-Pump-1                  365.117       605.227        29.875         3.651        18.428
  XR-Pump-2                  365.117       605.227        29.875         3.651        18.428
  XR-Pump-3                  331.172       550.868        26.644         3.248        16.410
  XR-Pump-4                  331.172       550.868        26.644         3.248        16.410
  

  Analysis begun on:  Wed Jul 14 11:34:47 2021
  Analysis ended on:  Wed Jul 14 11:34:50 2021
  Total elapsed time: 00:00:03