
  EPA STORM WATER MANAGEMENT MODEL - VERSION 5.1 (Build 5.3.0.dev0)
  --------------------------------------------------------------

  WARNING 04: minimum elevation drop used for Conduit WS02004404WS02004405
  WARNING 03: negative offset ignored for Link YS02001904YS02001907
  
  *********************************************************
  NOTE: The summary statistics displayed in this report are
  based on results found at every computational time step,  
  not just on results from each reporting time step.
  *********************************************************
  
  ****************
  Analysis Options
  ****************
  Flow Units ............... LPS
  Process Models:
    Rainfall/Runoff ........ YES
    RDII ................... NO
    Snowmelt ............... NO
    Groundwater ............ NO
    Flow Routing ........... YES
    Ponding Allowed ........ NO
    Water Quality .......... YES
  Infiltration Method ...... HORTON
  Flow Routing Method ...... DYNWAVE
  Surcharge Method ......... EXTRAN
  Starting Date ............ 08/28/2015 08:00:00
  Ending Date .............. 08/28/2015 15:50:00
  Antecedent Dry Days ...... 8.0
  Report Time Step ......... 00:01:00
  Wet Time Step ............ 00:01:00
  Dry Time Step ............ 00:01:00
  Routing Time Step ........ 5.00 sec
  Variable Time Step ....... YES
  Maximum Trials ........... 8
  Number of Threads ........ 4
  Head Tolerance ........... 0.001500 m
  
  
  **************************        Volume         Depth
  Runoff Quantity Continuity     hectare-m            mm
  **************************     ---------       -------
  Total Precipitation ......         6.144        13.452
  Evaporation Loss .........         0.000         0.000
  Infiltration Loss ........         1.064         2.328
  Surface Runoff ...........         4.147         9.079
  Final Storage ............         0.935         2.047
  Continuity Error (%) .....        -0.020
  
  
  **************************           COD            SS            TN            TP         NH4-N
  Runoff Quality Continuity             kg            kg            kg            kg            kg
  **************************    ----------    ----------    ----------    ----------    ----------
  Initial Buildup ..........     41378.656     70582.865      1804.177       168.684      1032.807
  Surface Buildup ..........        21.799        40.924         2.400         0.218         1.395
  Wet Deposition ...........         0.000         0.000         0.000         0.000         0.000
  Sweeping Removal .........         0.000         0.000         0.000         0.000         0.000
  Infiltration Loss ........        97.311       184.943         1.849         0.130         0.881
  BMP Removal ..............         0.000         0.000         0.000         0.000         0.000
  Surface Runoff ...........      3769.819      7064.251        72.781         4.964        34.599
  Remaining Buildup ........     37531.916     63371.884      1731.919       163.806       998.709
  Continuity Error (%) .....         0.003         0.004         0.002         0.001         0.001
  
  
  **************************        Volume        Volume
  Flow Routing Continuity        hectare-m      10^6 ltr
  **************************     ---------     ---------
  Dry Weather Inflow .......         0.616         6.165
  Wet Weather Inflow .......         4.145        41.451
  Groundwater Inflow .......         0.000         0.000
  RDII Inflow ..............         0.000         0.000
  External Inflow ..........         0.102         1.024
  External Outflow .........         2.049        20.490
  Flooding Loss ............         2.394        23.936
  Evaporation Loss .........         0.000         0.000
  Exfiltration Loss ........         0.000         0.000
  Initial Stored Volume ....         0.076         0.761
  Final Stored Volume ......         0.641         6.414
  Continuity Error (%) .....        -2.914
  
  
  **************************           COD            SS            TN            TP         NH4-N
  Quality Routing Continuity            kg            kg            kg            kg            kg
  **************************    ----------    ----------    ----------    ----------    ----------
  Dry Weather Inflow .......      1541.201      2465.922       147.955        18.494        92.472
  Wet Weather Inflow .......      3768.961      7062.801        72.762         4.963        34.591
  Groundwater Inflow .......         0.000         0.000         0.000         0.000         0.000
  RDII Inflow ..............         0.000         0.000         0.000         0.000         0.000
  External Inflow ..........       183.418       293.469        17.608         2.201        11.005
  External Outflow .........      2411.486      4178.257       149.438        17.483        90.165
  Flooding Loss ............      2359.820      4401.595        60.455         5.272        31.760
  Exfiltration Loss ........         0.000         0.000         0.000         0.000         0.000
  Mass Reacted .............         0.000         0.000         0.000         0.000         0.000
  Initial Stored Mass ......         0.000         0.000         0.000         0.000         0.000
  Final Stored Mass ........       540.228       928.393        24.056         2.562        13.924
  Continuity Error (%) .....         3.314         3.196         1.836         1.331         1.607
  
  
  *************************
  Highest Continuity Errors
  *************************
  Node JK-storage (-13.74%)
  Node HS02004842 (13.41%)
  Node YS02001884 (12.12%)
  Node HS02004817 (2.53%)
  Node YSB1171 (2.46%)
  
  
  ***************************
  Time-Step Critical Elements
  ***************************
  Link WS02006252WS02006251 (61.16%)
  Link WS02006280WS02006229 (11.15%)
  Link WS02006238WS02006235 (6.39%)
  Link YS02001793JiankangQianchi (5.35%)
  Link WS02004404WS02004405 (4.82%)
  
  
  ********************************
  Highest Flow Instability Indexes
  ********************************
  Link YS02163601YS02164001 (41)
  Link WS02006113WS02006111 (41)
  Link YS02001629YS02163301 (40)
  Link YS02163301YS02001633 (40)
  Link YS02001619YS02001622 (39)
  
  
  *************************
  Routing Time Step Summary
  *************************
  Minimum Time Step           :     0.50 sec
  Average Time Step           :     1.19 sec
  Maximum Time Step           :     5.00 sec
  Percent in Steady State     :    -0.00
  Average Iterations per Step :     4.39
  Percent Not Converging      :    18.53
  
  
  ***************************
  Subcatchment Runoff Summary
  ***************************
  
  ------------------------------------------------------------------------------------------------------------------------------
                            Total      Total      Total      Total     Imperv       Perv      Total       Total     Peak  Runoff
                           Precip      Runon       Evap      Infil     Runoff     Runoff     Runoff      Runoff   Runoff   Coeff
  Subcatchment                 mm         mm         mm         mm         mm         mm         mm    10^6 ltr      LPS
  ------------------------------------------------------------------------------------------------------------------------------
  sub0                      13.45       0.00       0.00       0.63      12.47       0.31      12.77        0.01     3.75   0.950
  sub1                      13.45       0.00       0.00       1.12      11.88       0.36      12.24        0.08    25.66   0.910
  sub2                      13.45       0.00       0.00       4.44       8.39       0.53       8.92        0.08    25.29   0.663
  sub3                      13.45       0.00       0.00       4.56       8.35       0.42       8.77        0.20    55.75   0.652
  sub4                      13.45       0.00       0.00       1.22      11.71       0.26      11.97        0.25    65.52   0.890
  sub5                      13.45       0.00       0.00       0.68      12.41       0.26      12.67        0.14    44.76   0.942
  sub7                      13.45       0.00       0.00       0.86      12.18       0.35      12.53        0.04    14.26   0.931
  sub8                      13.45       0.00       0.00       0.87      12.17       0.34      12.50        0.08    26.26   0.930
  sub9                      13.45       0.00       0.00       0.88      12.17       0.33      12.50        0.06    19.64   0.929
  sub10                     13.45       0.00       0.00       0.78      12.29       0.29      12.58        0.14    44.00   0.935
  sub11                     13.45       0.00       0.00       0.77      12.30       0.31      12.61        0.15    48.45   0.938
  sub12                     13.45       0.00       0.00       1.25      11.66       0.50      12.16        0.11    38.10   0.904
  sub14                     13.45       0.00       0.00       0.88      12.16       0.33      12.49        0.12    38.67   0.929
  sub15                     13.45       0.00       0.00       3.37       9.35       0.66      10.01        0.17    57.01   0.744
  sub16                     13.45       0.00       0.00       3.56       8.97       0.88       9.85        0.10    37.63   0.732
  sub17                     13.45       0.00       0.00       3.47       9.10       0.84       9.94        0.09    30.67   0.739
  sub22                     13.45       0.00       0.00       4.98       7.63       0.81       8.43        0.53   184.54   0.627
  sub23                     13.45       0.00       0.00       4.17       8.43       0.81       9.24        0.44   154.22   0.687
  sub60                     13.45       0.00       0.00       1.53       9.85       0.09       9.93        3.01   438.14   0.738
  sub61                     13.45       0.00       0.00       2.16       9.95       0.12      10.07        3.11   536.45   0.749
  sub62                     13.45       0.00       0.00       0.98      10.84       0.10      10.94        3.36   552.35   0.813
  sub63                     13.45       0.00       0.00       3.77       8.69       0.14       8.83        2.67   492.63   0.656
  sub64                     13.45       0.00       0.00       1.93       9.45       0.09       9.54        2.90   416.72   0.709
  sub65                     13.45       0.00       0.00       1.67       9.61       0.08       9.70        2.98   423.09   0.721
  sub66                     13.45       0.00       0.00       3.81       8.10       0.09       8.18        2.51   380.66   0.608
  sub67                     13.45       0.00       0.00       0.95      11.38       0.13      11.51        3.55   679.52   0.856
  sub68                     13.45       0.00       0.00       1.75      10.45       0.13      10.59        3.26   586.26   0.787
  sub69                     13.45       0.00       0.00       1.83      10.79       0.19      10.98        2.57   544.72   0.816
  sub70                     13.45      11.20       0.00       7.51      14.65       0.88      15.52        3.55   494.81   0.630
  sub71                     13.45       0.00       0.00       0.99      10.58       0.09      10.67        2.52   389.24   0.793
  sub72                     13.45       0.00       0.00       0.89       8.56       0.05       8.61        1.75   189.18   0.640
  1                         13.45      15.11       0.00       1.37      16.56       4.63      21.19        4.98   484.42   0.742
  2                         13.45       0.00       0.00       3.02       3.21       1.96       5.17        2.07   340.45   0.384
  
  
  ****************************
  Subcatchment Washoff Summary
  ****************************
  
  ------------------------------------------------------------------------------------------
                                 COD            SS            TN            TP         NH4-N
  Subcatchment                    kg            kg            kg            kg            kg
  ------------------------------------------------------------------------------------------
  sub0                         2.670         5.197         0.046         0.004         0.022
  sub1                        11.241        22.423         0.210         0.015         0.101
  sub2                         6.894        13.384         0.145         0.010         0.067
  sub3                        16.924        32.573         0.350         0.024         0.161
  sub4                        25.772        51.904         0.510         0.031         0.245
  sub5                        25.778        50.682         0.460         0.035         0.223
  sub7                         5.751        11.638         0.108         0.007         0.052
  sub8                         8.581        17.755         0.171         0.010         0.082
  sub9                         7.353        15.005         0.142         0.009         0.068
  sub10                       21.202        42.223         0.389         0.028         0.188
  sub11                       20.657        41.614         0.386         0.026         0.187
  sub12                       17.724        35.094         0.321         0.024         0.155
  sub14                       15.732        31.800         0.298         0.020         0.144
  sub15                       20.231        39.321         0.389         0.028         0.182
  sub16                       13.129        25.518         0.249         0.019         0.117
  sub17                       12.049        23.208         0.222         0.017         0.105
  sub22                       62.582       119.432         1.186         0.090         0.554
  sub23                       36.683        72.439         0.776         0.051         0.357
  sub60                      243.520       456.962         4.842         0.298         2.321
  sub61                      302.151       564.434         5.627         0.386         2.710
  sub62                      313.722       596.076         6.119         0.388         2.938
  sub63                      223.275       410.850         4.468         0.314         2.075
  sub64                      305.877       553.773         5.626         0.410         2.687
  sub65                      313.037       569.066         5.795         0.415         2.772
  sub66                      176.068       321.340         3.608         0.236         1.687
  sub67                      466.222       877.505         8.365         0.616         4.045
  sub68                      332.037       626.413         6.347         0.429         3.034
  sub69                      298.258       568.561         5.590         0.393         2.674
  sub70                      502.897       962.303        10.037         0.699         4.710
  sub71                      206.745       396.330         4.242         0.246         2.030
  sub72                      164.385       293.107         3.069         0.210         1.476
  1                          349.075       671.606         7.102         0.495         3.297
  2                           42.749        75.577         1.214         0.073         0.518
  ------------------------------------------------------------------------------------------
  System                    4570.974      8595.115        88.408         6.057        41.983
  
  
  ******************
  Node Depth Summary
  ******************
  
  ---------------------------------------------------------------------------------
                                 Average  Maximum  Maximum  Time of Max    Reported
                                   Depth    Depth      HGL   Occurrence   Max Depth
  Node                 Type       Meters   Meters   Meters  days hr:min      Meters
  ---------------------------------------------------------------------------------
  WS02001211           JUNCTION     0.77     0.85     5.69     0  03:07        0.85
  WS02001212           JUNCTION     0.49     0.58     5.64     0  03:06        0.58
  WS02001213           JUNCTION     0.73     0.85     5.62     0  03:06        0.85
  WS02003069           JUNCTION     0.53     0.72     5.30     0  03:05        0.72
  WS02003072           JUNCTION     0.59     0.76     5.13     0  03:06        0.76
  WS02003073           JUNCTION     0.36     0.48     4.54     0  03:06        0.48
  WS02003060           JUNCTION     0.47     0.63     5.57     0  03:05        0.63
  WS02003066           JUNCTION     0.26     0.39     5.94     0  03:04        0.39
  WS02003059           JUNCTION     0.78     0.91     5.60     0  03:05        0.91
  WS02003067           JUNCTION     0.63     0.82     6.14     0  03:03        0.82
  WS02004401           JUNCTION     0.75     1.24     7.24     0  03:02        1.23
  WS02004402           JUNCTION     0.78     1.23     7.19     0  03:02        1.22
  WS02004403           JUNCTION     0.80     1.20     7.13     0  03:02        1.19
  WS02004404           JUNCTION     0.87     1.24     7.09     0  03:02        1.24
  WS02004406           JUNCTION     0.87     1.17     7.00     0  03:01        1.16
  WS02004409           JUNCTION     0.57     0.96     6.73     0  03:03        0.96
  WS02004410           JUNCTION     0.59     0.95     6.67     0  03:03        0.95
  WS02004411           JUNCTION     0.60     0.93     6.61     0  03:03        0.93
  WS02004412           JUNCTION     0.61     0.90     6.54     0  03:03        0.90
  WS02004413           JUNCTION     0.77     1.02     6.49     0  03:03        1.02
  WS02004405           JUNCTION     0.87     1.22     7.07     0  03:02        1.21
  WS02006109           JUNCTION     0.85     1.66     8.28     0  03:02        1.64
  WS02006110           JUNCTION     0.82     1.45     8.03     0  03:02        1.44
  WS02006111           JUNCTION     0.26     0.88     7.59     0  03:02        0.88
  WS02006112           JUNCTION     0.94     1.56     7.44     0  03:02        1.55
  WS02006113           JUNCTION     0.39     0.92     7.82     0  03:02        0.92
  WS02006115           JUNCTION     0.65     1.22     7.36     0  03:02        1.21
  WS02006116           JUNCTION     0.73     1.26     7.30     0  03:02        1.25
  WS02006230           JUNCTION     0.88     1.88     8.62     0  03:02        1.87
  WS02006231           JUNCTION     0.62     1.52     8.64     0  03:02        1.51
  WS02006232           JUNCTION     0.77     1.62     8.66     0  03:02        1.62
  WS02006234           JUNCTION     0.71     1.53     8.68     0  03:02        1.51
  WS02006235           JUNCTION     0.76     1.54     8.70     0  03:02        1.53
  WS02006238           JUNCTION     0.79     1.56     8.70     0  03:02        1.55
  WS02006240           JUNCTION     0.70     1.40     8.69     0  03:02        1.39
  WS02006242           JUNCTION     0.75     1.43     8.69     0  03:01        1.42
  WS02006243           JUNCTION     0.64     1.28     8.70     0  03:02        1.27
  WS02006245           JUNCTION     0.62     1.21     8.70     0  03:01        1.20
  WS02006247           JUNCTION     0.63     1.20     8.70     0  03:00        1.19
  WS02006248           JUNCTION     0.57     1.10     8.69     0  02:57        1.10
  WS02006249           JUNCTION     0.59     1.09     8.69     0  02:54        1.09
  WS02006239           JUNCTION     0.75     1.49     8.70     0  03:02        1.48
  WS02006251           JUNCTION     0.57     1.45     9.12     0  02:54        1.21
  WS02006252           JUNCTION     0.35     0.92     9.16     0  02:54        0.76
  WS02006253           JUNCTION     0.60     1.77     9.42     0  02:54        1.26
  WS02006256           JUNCTION     1.78     2.35     9.28     0  00:00        2.35
  WS02004138           JUNCTION     0.19     0.20     7.45     0  00:00        0.19
  WS02004139           JUNCTION     0.72     0.79     5.70     0  03:07        0.79
  WS02004407           JUNCTION     0.25     0.40     6.71     0  03:02        0.40
  WS02006228           JUNCTION     0.87     1.83     8.48     0  03:02        1.82
  WS02006229           JUNCTION     0.86     1.90     8.59     0  03:02        1.89
  WS02006280           JUNCTION     0.07     0.30     8.57     0  03:05        0.30
  WS02006284           JUNCTION     0.37     0.65     9.04     0  03:02        0.64
  WS02006287           JUNCTION     0.10     0.39     9.34     0  03:02        0.39
  WSF200               JUNCTION     0.25     0.44     5.67     0  03:04        0.44
  HS02004901           JUNCTION     0.13     0.38    10.20     0  03:01        0.37
  HS02004881           JUNCTION     0.01     0.05     9.08     0  03:01        0.05
  HS02004876           JUNCTION     0.04     0.16     9.19     0  03:01        0.16
  HS02004870           JUNCTION     0.02     0.09     9.38     0  03:01        0.09
  HS02004862           JUNCTION     0.02     0.11     9.49     0  03:01        0.11
  HS02004856           JUNCTION     0.08     0.15     9.58     0  03:01        0.15
  HS02004852           JUNCTION     0.01     0.07     9.59     0  03:02        0.07
  HS02004848           JUNCTION     0.01     0.07     9.67     0  03:01        0.07
  HS02004842           JUNCTION     0.33     0.40     9.67     0  03:01        0.40
  HS02004837           JUNCTION     0.03     0.09     9.67     0  03:01        0.09
  HS02004830           JUNCTION     0.04     0.10     9.57     0  03:01        0.10
  HS02004824           JUNCTION     0.02     0.13     9.53     0  03:02        0.13
  HS02004817           JUNCTION     0.44     0.69     9.54     0  03:02        0.69
  HS02004807           JUNCTION     0.13     0.36     9.53     0  03:02        0.36
  HS02004802           JUNCTION     0.17     0.39     9.52     0  03:02        0.39
  HS02004799           JUNCTION     0.12     0.46     9.68     0  03:01        0.46
  HS02004792           JUNCTION     0.03     0.22     9.74     0  03:01        0.21
  HS02004788           JUNCTION     0.03     0.16    10.05     0  03:02        0.16
  HS02004785           JUNCTION     0.05     0.25    10.15     0  03:02        0.25
  HS02004777           JUNCTION     0.15     0.39    10.19     0  03:01        0.39
  HS02004770           JUNCTION     0.12     0.37    10.20     0  03:01        0.36
  HS02004480           JUNCTION     0.08     0.38     9.62     0  03:01        0.38
  HS02004479           JUNCTION     0.12     0.42     9.62     0  03:01        0.42
  HS02004478           JUNCTION     0.06     0.28     9.50     0  03:01        0.28
  YS02001745           JUNCTION     0.74     0.94     8.46     0  03:01        0.94
  YS02001748           JUNCTION     1.13     1.38     8.46     0  03:01        1.37
  YS02001751           JUNCTION     1.31     1.57     8.45     0  03:00        1.56
  YS02001754           JUNCTION     1.57     1.83     8.44     0  03:00        1.82
  YS02001762           JUNCTION     1.77     2.06     8.46     0  03:00        2.02
  YS02001765           JUNCTION     1.72     2.01     8.46     0  03:00        1.97
  YS02001767           JUNCTION     1.68     1.96     8.45     0  03:00        1.93
  YS02001770           JUNCTION     1.68     1.95     8.44     0  03:00        1.92
  YS02001774           JUNCTION     1.75     1.99     8.42     0  03:00        1.98
  YS02001779           JUNCTION     1.49     1.68     8.37     0  02:39        1.68
  YS02001882           JUNCTION     0.58     1.63     8.35     0  03:00        1.62
  YS02001884           JUNCTION     0.67     1.73     8.35     0  03:00        1.73
  YS02001759           JUNCTION     1.80     2.09     8.45     0  03:00        2.06
  YS02001887           JUNCTION     0.75     1.82     8.35     0  03:00        1.80
  YS02001890           JUNCTION     0.78     1.81     8.32     0  02:46        1.81
  YS02001898           JUNCTION     0.55     1.56     8.30     0  02:46        1.55
  YS02001901           JUNCTION     0.67     1.68     8.29     0  02:57        1.67
  YS02001904           JUNCTION     0.64     1.64     8.27     0  02:57        1.63
  YS02001907           JUNCTION     0.98     1.96     8.25     0  02:45        1.96
  YS02001910           JUNCTION     0.77     1.79     8.30     0  02:47        1.77
  YS02001915           JUNCTION     0.56     1.61     8.32     0  02:47        1.61
  YS02001918           JUNCTION     0.30     1.30     8.36     0  02:47        1.30
  YS02001619           JUNCTION     1.28     1.49     8.41     0  03:00        1.48
  YS02001629           JUNCTION     1.63     1.85     8.40     0  06:21        1.84
  YS02001641           JUNCTION     1.73     1.94     8.37     0  02:49        1.93
  YS02001644           JUNCTION     1.73     1.92     8.35     0  02:39        1.92
  YS02001652           JUNCTION     1.58     2.07     8.67     0  03:49        1.94
  YS02001655           JUNCTION     1.34     2.00     8.85     0  03:49        1.85
  YS02001920           JUNCTION     0.41     1.38     8.38     0  02:46        1.37
  YS02001923           JUNCTION     0.24     1.14     8.40     0  02:47        1.14
  YS02001926           JUNCTION     0.30     0.96     8.40     0  02:46        0.94
  YS02001929           JUNCTION     0.17     0.73     8.42     0  02:46        0.69
  YS02001658           JUNCTION     1.07     1.92     9.06     0  02:49        1.77
  YS02001661           JUNCTION     0.84     2.09     9.49     0  04:36        1.63
  YS02001664           JUNCTION     0.38     0.57     8.49     0  04:45        0.56
  YS02001622           JUNCTION     1.30     1.50     8.41     0  03:00        1.50
  YS02001633           JUNCTION     1.72     1.95     8.40     0  02:56        1.94
  YS02001649           JUNCTION     1.77     2.05     8.44     0  02:43        2.05
  YS02001757           JUNCTION     1.90     2.17     8.43     0  02:59        2.16
  YS02001895           JUNCTION     0.54     1.57     8.31     0  02:57        1.56
  YS02001625           JUNCTION     1.58     1.78     8.38     0  02:39        1.78
  YS02163301           JUNCTION     1.66     1.88     8.40     0  02:39        1.88
  YS02163601           JUNCTION     1.77     1.99     8.39     0  02:39        1.98
  YS02164001           JUNCTION     1.71     1.93     8.38     0  02:39        1.91
  YS02001647           JUNCTION     1.56     1.80     8.41     0  02:49        1.80
  YSB1154              JUNCTION     0.26     0.57     9.62     0  03:01        0.57
  YSB6556              JUNCTION     0.15     0.45     9.62     0  03:02        0.45
  YSB1174              JUNCTION     0.21     0.52     9.62     0  03:01        0.51
  YSB1171              JUNCTION     0.41     0.72     9.62     0  03:01        0.72
  YS02006553           JUNCTION     0.98     1.97     8.25     0  02:54        1.96
  YS02006561           JUNCTION     0.33     1.08     7.74     0  02:48        1.08
  YS02006556           JUNCTION     0.94     1.93     8.24     0  03:00        1.93
  YS02006558           JUNCTION     0.98     1.98     8.24     0  03:00        1.97
  YS02001783           JUNCTION     0.55     1.93     8.07     0  02:35        1.47
  YS02001784           JUNCTION     0.57     1.70     7.77     0  02:35        1.40
  YS02001786           JUNCTION     0.50     1.49     7.52     0  02:35        1.25
  YS02001788           JUNCTION     0.42     1.41     7.38     0  02:35        1.12
  YS02001790           JUNCTION     0.53     1.86     7.50     0  04:52        1.28
  YS02001791           JUNCTION     0.48     1.58     7.05     0  02:34        1.27
  YS02001793           JUNCTION     0.64     1.96     6.79     0  02:35        1.81
  WSC                  OUTFALL      0.36     0.48     1.15     0  03:07        0.48
  JK-storage           STORAGE      2.56     5.80     6.60     0  02:35        5.80
  CC-storage           STORAGE      1.16     1.41     8.41     0  03:14        1.41
  XR-storage           STORAGE      6.72     7.72     5.72     0  02:59        7.72
  
  
  *******************
  Node Inflow Summary
  *******************
  
  -------------------------------------------------------------------------------------------------
                                  Maximum  Maximum                  Lateral       Total        Flow
                                  Lateral    Total  Time of Max      Inflow      Inflow     Balance
                                   Inflow   Inflow   Occurrence      Volume      Volume       Error
  Node                 Type           LPS      LPS  days hr:min    10^6 ltr    10^6 ltr     Percent
  -------------------------------------------------------------------------------------------------
  WS02001211           JUNCTION      7.35   390.29     0  03:16       0.207        10.1       0.410
  WS02001212           JUNCTION      0.00   393.23     0  03:16           0          10       0.251
  WS02001213           JUNCTION      0.00   395.76     0  03:16           0          10       0.300
  WS02003069           JUNCTION      0.32  1331.34     0  03:05     0.00902        20.6       0.194
  WS02003072           JUNCTION      0.00  1331.02     0  03:05           0        20.5       0.227
  WS02003073           JUNCTION      1.82  1332.98     0  03:06      0.0514        20.5       0.267
  WS02003060           JUNCTION     16.53  1331.19     0  03:04       0.466        20.6       0.181
  WS02003066           JUNCTION      0.00   938.53     0  03:04           0        10.2       0.053
  WS02003059           JUNCTION      0.00   398.68     0  03:15           0        9.99       0.421
  WS02003067           JUNCTION      0.00   938.02     0  03:04           0        10.2       0.106
  WS02004401           JUNCTION      0.00   939.86     0  03:02           0        10.5       0.234
  WS02004402           JUNCTION      0.00   940.18     0  03:02           0        10.5       0.217
  WS02004403           JUNCTION      0.00   940.07     0  03:02           0        10.4       0.194
  WS02004404           JUNCTION      0.16   940.43     0  03:02     0.00457        10.4       0.143
  WS02004406           JUNCTION      0.00   940.18     0  03:02           0        10.4       0.350
  WS02004409           JUNCTION      0.00   939.51     0  03:03           0        10.3       0.203
  WS02004410           JUNCTION      0.00   938.21     0  03:03           0        10.3       0.223
  WS02004411           JUNCTION      0.00   937.75     0  03:03           0        10.3       0.225
  WS02004412           JUNCTION      0.00   937.41     0  03:03           0        10.3       0.237
  WS02004413           JUNCTION      0.00   937.96     0  03:04           0        10.3       0.340
  WS02004405           JUNCTION      0.04   940.92     0  03:02     0.00107        10.4       0.213
  WS02006109           JUNCTION      1.23   915.41     0  03:02      0.0347        10.5       0.186
  WS02006110           JUNCTION      0.00   915.67     0  03:02           0        10.5       0.201
  WS02006111           JUNCTION      0.00   915.81     0  03:02           0        10.5       0.050
  WS02006112           JUNCTION     30.67   939.70     0  03:02      0.0853        10.6       0.316
  WS02006113           JUNCTION      0.00   915.60     0  03:02           0        10.5       0.118
  WS02006115           JUNCTION      0.00   939.58     0  03:02           0        10.5       0.234
  WS02006116           JUNCTION      0.00   940.18     0  03:02           0        10.5       0.202
  WS02006230           JUNCTION     10.28   533.79     0  06:51        0.29        8.12       0.203
  WS02006231           JUNCTION      0.00   523.30     0  07:30           0        7.85       0.171
  WS02006232           JUNCTION      0.00   523.29     0  07:30           0        7.86       0.234
  WS02006234           JUNCTION      0.00   523.95     0  06:51           0        7.88       0.140
  WS02006235           JUNCTION      0.00   524.94     0  06:51           0        7.96       0.151
  WS02006238           JUNCTION      0.00   418.45     0  07:40           0        4.61       0.192
  WS02006240           JUNCTION      0.00   416.73     0  07:40           0        4.57       0.370
  WS02006242           JUNCTION      0.00   416.35     0  07:40           0        4.56       0.408
  WS02006243           JUNCTION      0.00   416.32     0  07:40           0        4.55       0.213
  WS02006245           JUNCTION      0.00   416.19     0  07:40           0        4.56       0.352
  WS02006247           JUNCTION      0.00   416.26     0  07:40           0        4.56       0.247
  WS02006248           JUNCTION      0.00   417.23     0  07:40           0        4.57       0.207
  WS02006249           JUNCTION      0.00   537.57     0  03:00           0        5.12       0.306
  WS02006239           JUNCTION      0.00   417.90     0  07:40           0        4.58       0.179
  WS02006251           JUNCTION      0.08   536.38     0  03:00     0.00217         5.2       0.333
  WS02006252           JUNCTION      0.00   400.00     0  05:10           0        4.68       0.014
  WS02006253           JUNCTION      3.75   145.91     0  02:53      0.0103       0.535       2.416
  WS02006256           JUNCTION      0.00   983.00     0  02:50           0        10.5       0.004
  WS02004138           JUNCTION      0.00   380.00     0  00:00           0        9.92       0.063
  WS02004139           JUNCTION      0.32   395.85     0  00:00     0.00905        9.92       0.468
  WS02004407           JUNCTION      0.00   939.95     0  03:02           0        10.4       0.089
  WS02006228           JUNCTION      0.00   914.10     0  03:03           0        10.5       0.153
  WS02006229           JUNCTION      0.00   916.52     0  03:02           0        10.5       0.140
  WS02006280           JUNCTION      0.00   680.20     0  03:02           0        2.43       0.012
  WS02006284           JUNCTION      0.10   679.07     0  03:02      0.0027        2.43       0.045
  WS02006287           JUNCTION      0.00   677.71     0  03:02           0        2.43       0.032
  WSF200               JUNCTION      0.00   938.68     0  03:04           0        10.2       0.053
  HS02004901           JUNCTION     37.63    37.63     0  03:01       0.103       0.103       1.741
  HS02004881           JUNCTION     14.26   140.55     0  03:01      0.0422       0.463       0.117
  HS02004876           JUNCTION     25.66   127.65     0  03:01      0.0814       0.422       0.130
  HS02004870           JUNCTION     26.26   103.59     0  03:01      0.0799        0.34       0.035
  HS02004862           JUNCTION     25.49    79.37     0  03:01      0.0888       0.261       0.067
  HS02004856           JUNCTION     19.64    55.41     0  03:01      0.0601       0.173       0.845
  HS02004852           JUNCTION      0.00    37.85     0  03:01           0       0.113       0.053
  HS02004848           JUNCTION     55.75    55.75     0  03:01       0.197       0.197       0.028
  HS02004842           JUNCTION      0.00    16.84     0  03:01           0       0.097      15.492
  HS02004837           JUNCTION     50.35    65.69     0  03:01       0.318       0.402       0.204
  HS02004830           JUNCTION      0.15    64.80     0  03:01     0.00423       0.392       0.316
  HS02004824           JUNCTION     65.57   128.43     0  03:01       0.251       0.642       0.086
  HS02004817           JUNCTION      0.60   124.47     0  03:01      0.0169       0.658       2.600
  HS02004807           JUNCTION     48.45   165.79     0  03:01       0.147       0.788       0.555
  HS02004802           JUNCTION      0.00   165.31     0  03:04           0       0.785       0.507
  HS02004799           JUNCTION     38.67   446.05     0  03:01       0.119        1.42       0.191
  HS02004792           JUNCTION    184.82   411.71     0  03:01        0.54         1.3       0.033
  HS02004788           JUNCTION     58.68   233.43     0  03:02       0.219       0.758       0.053
  HS02004785           JUNCTION      0.15   182.22     0  03:01     0.00423        0.54       0.094
  HS02004777           JUNCTION      0.03   185.02     0  03:01    0.000846       0.541       0.972
  HS02004770           JUNCTION    154.22   188.93     0  03:01       0.441       0.542       0.578
  HS02004480           JUNCTION      0.00   517.23     0  03:01           0        1.66       0.069
  HS02004479           JUNCTION      0.00    75.43     0  03:02           0       0.258       0.287
  HS02004478           JUNCTION      0.00   677.12     0  03:02           0        2.43       0.010
  YS02001745           JUNCTION    438.14   438.14     0  03:01        3.01        3.01       0.337
  YS02001748           JUNCTION      0.04   444.30     0  03:01     0.00127           3       0.709
  YS02001751           JUNCTION      0.01   443.81     0  03:01     0.00031        2.98       0.794
  YS02001754           JUNCTION      0.26   443.66     0  03:01     0.00733        2.96       0.843
  YS02001762           JUNCTION      0.00   313.51     0  02:43           0        1.82       1.185
  YS02001765           JUNCTION      0.00   314.05     0  02:43           0        1.82       1.357
  YS02001767           JUNCTION      0.54   313.45     0  02:43      0.0151        1.85       1.992
  YS02001770           JUNCTION    552.50   648.33     0  03:01        3.37         3.7       0.868
  YS02001774           JUNCTION      0.00   649.00     0  03:01           0        2.18       1.179
  YS02001779           JUNCTION      0.01   649.94     0  03:01    0.000141        2.15       0.733
  YS02001882           JUNCTION      0.00    30.50     0  02:37           0      0.0168      16.633
  YS02001884           JUNCTION      0.00    60.00     0  02:37           0      0.0538      13.787
  YS02001759           JUNCTION    536.49   620.75     0  02:43        3.11        4.56       0.503
  YS02001887           JUNCTION    679.97   680.00     0  03:01        3.56         3.6       0.248
  YS02001890           JUNCTION      0.00   679.96     0  03:01           0        3.55       0.271
  YS02001898           JUNCTION      0.00   517.39     0  03:00           0        3.45       0.103
  YS02001901           JUNCTION      0.00   517.21     0  03:01           0        3.44       0.215
  YS02001904           JUNCTION      0.00   517.50     0  02:57           0        3.44       0.193
  YS02001907           JUNCTION      0.00  1098.98     0  03:01           0        7.76       0.318
  YS02001910           JUNCTION      0.00   582.23     0  03:00           0        4.34       0.284
  YS02001915           JUNCTION    389.26   582.35     0  03:01        2.52        4.37       0.149
  YS02001918           JUNCTION      0.00   253.29     0  02:47           0        1.87       0.113
  YS02001619           JUNCTION    380.66   380.66     0  03:01        2.51        2.51       0.482
  YS02001629           JUNCTION      0.00   196.09     0  02:39           0        1.59       1.843
  YS02001641           JUNCTION      0.00   412.73     0  02:39           0        4.45       0.478
  YS02001644           JUNCTION    416.76  1490.80     0  03:01         2.9        10.6       0.247
  YS02001652           JUNCTION      0.00   500.64     0  03:01           0        2.62       0.892
  YS02001655           JUNCTION      0.15   500.94     0  03:01     0.00434        2.65       0.956
  YS02001920           JUNCTION      2.87   253.25     0  02:47      0.0809        1.86       0.170
  YS02001923           JUNCTION      0.04   237.88     0  02:47     0.00106        1.76       0.055
  YS02001926           JUNCTION      0.05   201.26     0  02:47     0.00147        1.76       0.192
  YS02001929           JUNCTION    189.18   189.18     0  03:01        1.75        1.75       0.035
  YS02001658           JUNCTION      0.00   500.61     0  03:01           0        2.67       0.915
  YS02001661           JUNCTION      0.00   638.96     0  02:45           0        3.03      -0.077
  YS02001664           JUNCTION    492.63   492.63     0  03:01        2.67        3.04       0.170
  YS02001622           JUNCTION      0.00   381.25     0  03:01           0         2.5       1.287
  YS02001633           JUNCTION    423.29   423.29     0  03:01        2.99        4.52       0.716
  YS02001649           JUNCTION      0.00   873.60     0  02:40           0           6       0.620
  YS02001757           JUNCTION      0.00  1681.93     0  02:40           0        9.84       0.943
  YS02001895           JUNCTION      0.00   517.16     0  03:03           0        3.45       0.156
  YS02001625           JUNCTION      0.00   409.51     0  03:01           0        2.48       1.603
  YS02163301           JUNCTION      0.00   196.14     0  02:39           0        1.57       1.563
  YS02163601           JUNCTION      0.11   412.67     0  02:39      0.0031        4.48       0.679
  YS02164001           JUNCTION      0.00   412.53     0  02:39           0        4.46       0.453
  YS02001647           JUNCTION      0.00   683.95     0  03:01           0         5.1       0.557
  YSB1154              JUNCTION     44.76    44.76     0  03:01       0.144       0.144       1.018
  YSB6556              JUNCTION      0.00    43.29     0  03:01           0       0.145       0.869
  YSB1174              JUNCTION     38.10    38.10     0  03:01       0.106       0.107       1.222
  YSB1171              JUNCTION      0.00    76.93     0  03:01           0       0.257       2.525
  YS02006553           JUNCTION      0.00   708.10     0  03:45           0        6.69       0.240
  YS02006561           JUNCTION      0.00   983.72     0  02:58           0        9.91       0.005
  YS02006556           JUNCTION      0.00   708.02     0  03:45           0        6.69       0.175
  YS02006558           JUNCTION    587.14   984.59     0  03:01        3.28        9.94       0.057
  YS02001783           JUNCTION      0.00   983.94     0  03:00           0        9.91       0.026
  YS02001784           JUNCTION      1.06   984.78     0  03:00      0.0299        9.94       0.039
  YS02001786           JUNCTION      0.06   984.64     0  03:00     0.00159        9.93       0.038
  YS02001788           JUNCTION      0.07   984.69     0  03:00       0.002        9.93       0.024
  YS02001790           JUNCTION      0.15   984.92     0  03:00     0.00437        9.93       0.016
  YS02001791           JUNCTION      0.00   984.94     0  03:00           0        9.93       0.008
  YS02001793           JUNCTION      0.00   985.56     0  03:00           0        9.93      -0.014
  WSC                  OUTFALL       0.00  1333.30     0  03:07           0        20.5       0.000
  JK-storage           STORAGE       0.00   985.26     0  03:00           0        10.1     -12.079
  CC-storage           STORAGE       0.00  1682.35     0  02:40           0        8.19       0.760
  XR-storage           STORAGE    1024.87  1024.87     0  03:01        12.7        13.3       0.001
  
  
  **********************
  Node Surcharge Summary
  **********************
  
  Surcharging occurs when water rises above the top of the highest conduit.
  ---------------------------------------------------------------------
                                               Max. Height   Min. Depth
                                   Hours       Above Crown    Below Rim
  Node                 Type      Surcharged         Meters       Meters
  ---------------------------------------------------------------------
  WS02004401           JUNCTION        0.49          0.235        1.425
  WS02004402           JUNCTION        0.53          0.226        1.514
  WS02004403           JUNCTION        0.54          0.204        1.826
  WS02004404           JUNCTION        0.88          0.244        2.536
  WS02004406           JUNCTION        0.69          0.166        2.284
  WS02004413           JUNCTION        0.19          0.023        2.177
  WS02004405           JUNCTION        0.72          0.218        2.582
  WS02006109           JUNCTION        4.35          0.837        0.983
  WS02006110           JUNCTION        2.27          0.539        1.311
  WS02006111           JUNCTION        0.13          0.075        1.795
  WS02006112           JUNCTION        2.90          0.559        1.121
  WS02006113           JUNCTION        0.16          0.123        1.807
  WS02006115           JUNCTION        0.35          0.206        2.044
  WS02006116           JUNCTION        0.37          0.199        2.091
  WS02006230           JUNCTION        1.87          0.796        0.774
  WS02006231           JUNCTION        2.33          0.811        0.719
  WS02006232           JUNCTION        4.09          0.923        0.557
  WS02006234           JUNCTION        3.38          0.805        0.435
  WS02006235           JUNCTION        3.54          0.829        0.461
  WS02006238           JUNCTION        3.67          0.837        0.593
  WS02006240           JUNCTION        3.33          0.692        0.698
  WS02006242           JUNCTION        3.51          0.695        0.125
  WS02006243           JUNCTION        2.85          0.570        0.200
  WS02006245           JUNCTION        2.64          0.501        0.349
  WS02006247           JUNCTION        2.68          0.488        0.272
  WS02006248           JUNCTION        2.40          0.380        0.000
  WS02006249           JUNCTION        2.48          0.390        0.000
  WS02006239           JUNCTION        3.40          0.751        0.539
  WS02006251           JUNCTION        1.48          0.418        0.762
  WS02006252           JUNCTION        2.88          0.521        0.579
  WS02006253           JUNCTION        1.53          0.732        1.748
  WS02006256           JUNCTION        6.84          2.050        0.000
  WS02006228           JUNCTION        4.30          0.998        1.202
  YS02001748           JUNCTION        5.22          0.301        0.889
  YS02001751           JUNCTION        5.38          0.571        0.629
  YS02001754           JUNCTION        5.58          0.785        0.365
  YS02001762           JUNCTION        5.75          1.055        0.095
  YS02001765           JUNCTION        5.72          1.005        0.095
  YS02001767           JUNCTION        5.69          0.963        0.067
  YS02001770           JUNCTION        5.68          0.919        0.001
  YS02001774           JUNCTION        5.74          0.995        0.055
  YS02001779           JUNCTION        5.56          0.680        0.000
  YS02001882           JUNCTION        1.10          0.635        0.195
  YS02001884           JUNCTION        1.13          0.674        0.196
  YS02001759           JUNCTION        5.78          1.089        0.121
  YS02001887           JUNCTION        1.19          0.766        0.184
  YS02001890           JUNCTION        1.21          0.760        0.000
  YS02001898           JUNCTION        1.07          0.535        0.205
  YS02001901           JUNCTION        1.16          0.678        0.192
  YS02001904           JUNCTION        1.14          0.637        0.213
  YS02001907           JUNCTION        1.87          0.950        0.000
  YS02001910           JUNCTION        1.25          0.790        0.310
  YS02001915           JUNCTION        1.09          0.607        0.393
  YS02001918           JUNCTION        0.93          0.299        0.511
  YS02001619           JUNCTION        5.40          0.485        0.125
  YS02001629           JUNCTION        5.40          0.468        0.002
  YS02001641           JUNCTION        5.73          0.937        0.163
  YS02001644           JUNCTION        5.73          0.920        0.000
  YS02001652           JUNCTION        5.61          1.040        0.090
  YS02001655           JUNCTION        5.41          0.998        0.202
  YS02001920           JUNCTION        0.95          0.376        0.764
  YS02001658           JUNCTION        5.24          0.919        0.381
  YS02001661           JUNCTION        0.15          1.017        0.373
  YS02001622           JUNCTION        5.41          0.504        0.116
  YS02001633           JUNCTION        5.71          0.927        0.133
  YS02001649           JUNCTION        5.75          1.050        0.000
  YS02001757           JUNCTION        5.86          1.174        0.036
  YS02001895           JUNCTION        1.08          0.567        0.183
  YS02001625           JUNCTION        5.64          0.780        0.000
  YS02163301           JUNCTION        5.68          0.884        0.146
  YS02163601           JUNCTION        5.75          0.995        0.085
  YS02164001           JUNCTION        5.72          0.925        0.175
  YS02001647           JUNCTION        5.62          0.804        0.096
  YS02006553           JUNCTION        1.97          0.970        0.220
  YS02006561           JUNCTION        0.98          0.281        0.869
  YS02006556           JUNCTION        1.47          0.891        0.459
  YS02006558           JUNCTION        1.43          0.877        0.523
  YS02001783           JUNCTION        1.26          1.129        0.471
  YS02001784           JUNCTION        1.24          0.903        0.587
  YS02001786           JUNCTION        1.19          0.689        0.741
  YS02001788           JUNCTION        1.14          0.607        0.873
  YS02001790           JUNCTION        1.84          1.060        0.097
  YS02001791           JUNCTION        1.93          0.776        1.144
  YS02001793           JUNCTION        2.18          0.962        1.638
  
  
  *********************
  Node Flooding Summary
  *********************
  
  Flooding refers to all water that overflows a node, whether it ponds or not.
  --------------------------------------------------------------------------
                                                             Total   Maximum
                                 Maximum   Time of Max       Flood    Ponded
                        Hours       Rate    Occurrence      Volume     Depth
  Node                 Flooded       LPS   days hr:min    10^6 ltr    Meters
  --------------------------------------------------------------------------
  WS02006248              0.07     14.72      0  03:03       0.002     0.000
  WS02006249              1.40    424.54      0  03:00       0.539     0.000
  WS02006256              4.22    831.03      0  03:02       7.106     0.000
  YS02001779              2.73    649.65      0  03:01       2.132     0.000
  YS02001890              0.34    163.55      0  03:01       0.085     0.000
  YS02001907              0.80    702.83      0  03:01       1.067     0.000
  YS02001644              4.37   1490.71      0  03:01       8.648     0.000
  YS02001649              0.04     33.04      0  03:49       0.002     0.000
  YS02001625              1.40    409.13      0  03:01       0.855     0.000
  JK-storage              0.71    768.86      0  02:39       0.886     0.000
  XR-storage              3.46    644.76      0  03:01       2.614     0.000
  
  
  **********************
  Storage Volume Summary
  **********************
  
  --------------------------------------------------------------------------------------------------
                         Average     Avg  Evap Exfil       Maximum     Max    Time of Max    Maximum
                          Volume    Pcnt  Pcnt  Pcnt        Volume    Pcnt     Occurrence    Outflow
  Storage Unit           1000 m3    Full  Loss  Loss       1000 m3    Full    days hr:min        LPS
  --------------------------------------------------------------------------------------------------
  JK-storage               0.129      44     0     0         0.291     100       0  02:35     983.00
  CC-storage               3.224      21     0     0         3.921      25       0  03:14     400.00
  XR-storage               0.806      87     0     0         0.926     100       0  02:59     380.00
  
  
  ***********************
  Outfall Loading Summary
  ***********************
  
  ---------------------------------------------------------------------------------------------------------------------------------
                         Flow       Avg       Max       Total         Total         Total         Total         Total         Total
                         Freq      Flow      Flow      Volume           COD            SS            TN            TP         NH4-N
  Outfall Node           Pcnt       LPS       LPS    10^6 ltr            kg            kg            kg            kg            kg
  ---------------------------------------------------------------------------------------------------------------------------------
  WSC                   99.98    821.32   1333.30      20.490      2411.713      4178.648       149.455        17.485        90.175
  ---------------------------------------------------------------------------------------------------------------------------------
  System                99.98    821.32   1333.30      20.490      2411.713      4178.648       149.455        17.485        90.175
  
  
  ********************
  Link Flow Summary
  ********************
  
  -----------------------------------------------------------------------------
                                 Maximum  Time of Max   Maximum    Max/    Max/
                                  |Flow|   Occurrence   |Veloc|    Full    Full
  Link                 Type          LPS  days hr:min     m/sec    Flow   Depth
  -----------------------------------------------------------------------------
  WS02003066WSF200     CONDUIT    938.68     0  03:04      3.00    0.16    0.32
  WS02006287WS02006284 CONDUIT    678.97     0  03:02      2.38    0.31    0.39
  WS02006284WS02006280 CONDUIT    680.20     0  03:02      2.62    0.28    0.37
  WS02006280WS02006229 CONDUIT    680.27     0  03:02      3.87    0.15    0.50
  WS02006229WS02006228 CONDUIT    914.10     0  03:03      1.82    3.03    1.00
  WS02006256WS02006235 CONDUIT    288.92     0  00:00      4.23    3.06    1.00
  WS02006253WS02006251 CONDUIT    144.35     0  03:01      0.64    0.43    1.00
  WS02006252WS02006251 CONDUIT    403.42     0  05:14      3.21    1.48    1.00
  WS02006251WS02006249 CONDUIT    537.57     0  03:00      1.40    1.55    1.00
  WS02006249WS02006248 CONDUIT    417.23     0  07:40      1.18    2.29    1.00
  WS02006248WS02006247 CONDUIT    416.26     0  07:40      1.16    0.91    1.00
  WS02006247WS02006245 CONDUIT    416.19     0  07:40      1.13    3.30    1.00
  WS02006245WS02006243 CONDUIT    416.32     0  07:40      1.16    1.23    1.00
  WS02006243WS02006242 CONDUIT    416.35     0  07:40      1.08    0.89    1.00
  WS02006242WS02006240 CONDUIT    416.73     0  07:40      1.08    1.66    1.00
  WS02006240WS02006239 CONDUIT    417.90     0  07:40      1.09    1.32    1.00
  WS02006239WS02006238 CONDUIT    418.45     0  07:40      1.09    1.34    1.00
  WS02006238WS02006235 CONDUIT    419.25     0  07:40      1.45    0.94    1.00
  WS02006235WS02006234 CONDUIT    523.95     0  06:51      1.36    5.53    1.00
  WS02006234WS02006232 CONDUIT    523.29     0  07:30      1.39    1.06    1.00
  WS02006232WS02006231 CONDUIT    523.30     0  07:30      1.36    1.10    1.00
  WS02006231WS02006230 CONDUIT    523.51     0  06:51      1.42    7.94    1.00
  WS02006230WS02006229 CONDUIT    535.97     0  06:51      1.39   11.93    1.00
  WS02006228WS02006109 CONDUIT    914.18     0  03:02      1.82    3.99    1.00
  WS02006116WS02004401 CONDUIT    939.86     0  03:02      1.20    1.30    1.00
  WS02006115WS02006116 CONDUIT    940.18     0  03:02      1.20    1.21    1.00
  WS02006113WS02006111 CONDUIT    915.81     0  03:02      2.60    1.10    1.00
  WS02006112WS02006115 CONDUIT    939.58     0  03:02      1.20    0.55    1.00
  WS02006111WS02006112 CONDUIT    916.22     0  03:03      1.82    0.44    1.00
  WS02006110WS02006113 CONDUIT    915.60     0  03:02      1.82    0.83    1.00
  WS02006109WS02006110 CONDUIT    915.67     0  03:02      1.82    1.76    1.00
  WS02004411WS02004412 CONDUIT    937.41     0  03:03      1.24    1.33    0.92
  WS02004401WS02004402 CONDUIT    940.18     0  03:02      1.20    1.13    1.00
  WS02004413WS02003067 CONDUIT    938.02     0  03:04      1.55    0.40    0.72
  WS02004412WS02004413 CONDUIT    937.96     0  03:04      1.22    0.63    0.95
  WS02004410WS02004411 CONDUIT    937.75     0  03:03      1.23    1.28    0.94
  WS02004409WS02004410 CONDUIT    938.21     0  03:03      1.21    1.21    0.95
  WS02004407WS02004409 CONDUIT    939.51     0  03:03      1.68    0.33    0.68
  WS02004406WS02004407 CONDUIT    939.95     0  03:02      1.60    0.42    0.70
  WS02004405WS02004406 CONDUIT    940.18     0  03:02      1.20    1.85    1.00
  WS02004404WS02004405 CONDUIT    940.88     0  03:02      1.20    9.22    1.00
  WS02004403WS02004404 CONDUIT    940.26     0  03:02      1.20    0.68    1.00
  WS02004402WS02004403 CONDUIT    940.07     0  03:02      1.20    1.35    1.00
  WS02004139WS02001211 CONDUIT    382.95     0  03:16      0.90    0.48    0.64
  WS02004138WS02004139 CONDUIT    395.52     0  00:00      3.64    0.08    0.47
  WS02003067WS02003066 CONDUIT    938.53     0  03:04      1.65    0.30    0.50
  WS02001213WS02003059 CONDUIT    398.68     0  03:15      0.89    0.66    0.87
  WS02001212WS02001213 CONDUIT    395.76     0  03:16      1.32    0.61    0.56
  WS02001211WS02001212 CONDUIT    393.23     0  03:16      0.78    0.30    0.71
  WS02003072WS02003073 CONDUIT   1331.16     0  03:06      1.96    2.88    0.58
  WS02003069WS02003072 CONDUIT   1331.02     0  03:05      1.82    0.64    0.62
  WS02003060WS02003069 CONDUIT   1331.02     0  03:05      2.03    0.52    0.56
  WS02003059WS02003060 CONDUIT    403.28     0  06:08      0.95    0.26    0.77
  HS02004901HS02004770 CONDUIT     37.23     0  03:01      0.10    0.14    0.53
  HS02004876HS02004881 CONDUIT    127.65     0  03:01      1.21    1.36    0.15
  HS02004870HS02004876 CONDUIT    103.11     0  03:01      0.82    0.07    0.18
  HS02004842HS02004848 CONDUIT     16.84     0  03:01      0.07    0.01    0.33
  HS02004837HS02004842 CONDUIT     17.91     0  03:03      0.42    0.01    0.35
  HS02004830HS02004837 CONDUIT     64.65     0  03:01      0.67    0.06    0.14
  HS02004824HS02004830 CONDUIT     64.13     0  03:02      0.62    0.08    0.16
  HS02004817HS02004824 CONDUIT    123.87     0  03:01      0.31    0.06    0.58
  HS02004770HS02004777 CONDUIT    184.99     0  03:01      0.49    0.34    0.54
  HS02004799HS02004480 CONDUIT    444.37     0  03:01      1.07    0.56    0.60
  HS02004792HS02004799 CONDUIT    408.46     0  03:01      1.20    0.25    0.49
  HS02004788HS02004792 CONDUIT    232.95     0  03:02      1.28    0.15    0.26
  HS02004785HS02004788 CONDUIT    181.79     0  03:02      0.91    1.37    0.29
  HS02004777HS02004785 CONDUIT    182.07     0  03:01      0.57    0.22    0.45
  HS02004480HS02004478 CONDUIT    517.38     0  03:01      1.55    2.18    0.48
  HS02004479HS02004480 CONDUIT     77.31     0  03:02      0.30    0.07    0.57
  HS02004862HS02004870 CONDUIT     79.03     0  03:01      0.80    0.09    0.14
  HS02004848HS02004852 CONDUIT     37.85     0  03:01      0.53    0.04    0.10
  HS02004856HS02004862 CONDUIT     54.77     0  03:01      0.59    0.05    0.13
  HS02004852HS02004856 CONDUIT     37.76     0  03:02      0.34    0.04    0.16
  HS02004802HS02004478 CONDUIT    170.17     0  03:04      0.54    0.15    0.48
  HS02004478WS02006287 CONDUIT    677.71     0  03:02      2.11    0.19    0.36
  HS02004817HS02004807 CONDUIT    128.13     0  03:04      0.25    0.08    0.75
  HS02004807HS02004802 CONDUIT    165.31     0  03:04      0.46    0.32    0.53
  YS02001759YS02001757 CONDUIT    620.77     0  02:43      0.79    0.44    1.00
  YS02001762YS02001759 CONDUIT    313.88     0  02:42      0.40    0.36    1.00
  YS02001765YS02001762 CONDUIT    313.51     0  02:43      0.40    0.29    1.00
  YS02001770YS02001767 CONDUIT    312.92     0  02:43      0.40    1.24    1.00
  YS02001774YS02001770 CONDUIT    649.00     0  03:01      0.83    0.41    1.00
  YS02001779YS02001774 CONDUIT    649.93     0  03:01      0.83    0.33    1.00
  YS02001649YS02001757 CONDUIT    873.98     0  02:40      1.11    0.53    1.00
  YS02001767YS02001765 CONDUIT    314.05     0  02:43      0.40    0.40    1.00
  YS02006561YS02001783 CONDUIT    983.94     0  03:00      2.15    0.51    1.00
  YS02001783YS02001784 CONDUIT    983.72     0  03:00      1.96    1.36    1.00
  YS02001784YS02001785 CONDUIT    984.58     0  03:00      1.96    2.29    1.00
  YS02001788YS02001790 CONDUIT    984.76     0  03:00      2.44    0.73    1.00
  YS02001790YS02001791 CONDUIT    984.94     0  03:00      2.91    1.07    1.00
  YS02001791YS02001793 CONDUIT    985.56     0  03:00      5.76    0.42    1.00
  YS02001910YS02001907 CONDUIT    582.17     0  03:01      0.74    0.33    1.00
  YS02001786YS02001788 CONDUIT    984.62     0  03:00      2.31    1.90    1.00
  YS02001915YS02001910 CONDUIT    582.23     0  03:00      0.74    0.29    1.00
  YS02001918YS02001915 CONDUIT    256.46     0  03:45      0.44    0.14    1.00
  YS02001923YS02001920 CONDUIT    250.38     0  02:47      0.76    0.11    1.00
  YS02001926YS02001923 CONDUIT    237.84     0  02:47      0.86    0.34    0.94
  YS02001929YS02001926 CONDUIT    201.21     0  02:47      0.92    0.10    0.84
  YS02001920YS02001918 CONDUIT    253.29     0  02:47      0.72    0.25    1.00
  YS02001629YS02163301 CONDUIT    196.14     0  02:39      0.25    0.24    1.00
  YS02001619YS02001622 CONDUIT    381.25     0  03:01      0.59    0.56    1.00
  YS02001622YS02001625 CONDUIT    381.38     0  03:01      0.49    0.20    1.00
  YS02001625YS02001629 CONDUIT    196.09     0  02:39      0.25    0.09    1.00
  YS02163301YS02001633 CONDUIT    196.13     0  02:39      0.25    0.18    1.00
  YS02163601YS02164001 CONDUIT    412.53     0  02:39      0.53    0.37    1.00
  YS02164001YS02001641 CONDUIT    412.73     0  02:39      0.53    0.56    1.00
  YS02001641YS02001644 CONDUIT    412.73     0  02:39      0.53    1.33    1.00
  YS02001647YS02001649 CONDUIT    683.95     0  03:01      0.87    0.36    1.00
  YS02006553YS02006556 CONDUIT    708.02     0  03:45      0.90    0.61    1.00
  YS02006556YS02006558 CONDUIT    708.12     0  03:45      0.90    0.56    1.00
  YSB6556YSB1171       CONDUIT     42.82     0  03:02      0.13    0.04    0.82
  YS02001907YS02006553 CONDUIT    708.10     0  03:45      0.79    0.83    1.00
  YS02006558YS02006561 CONDUIT    983.72     0  02:58      3.48    2.17    1.00
  YS02001633YS02163601 CONDUIT    412.56     0  02:39      0.53    0.43    1.00
  YS02001644YS02001647 CONDUIT    683.69     0  03:01      0.87    0.40    1.00
  YS02001745YS02001748 CONDUIT    444.25     0  03:01      1.46    0.17    0.97
  YS02001748YS02001751 CONDUIT    443.80     0  03:01      1.03    0.22    1.00
  YS02001751YS02001754 CONDUIT    443.40     0  03:01      0.88    0.21    1.00
  YS02001754YS02001757 CONDUIT    442.54     0  03:01      0.56    0.18    1.00
  YS02001882YS02001884 CONDUIT     30.50     0  02:37      0.12    0.03    1.00
  YS02001884YS02001887 CONDUIT     60.00     0  02:37      0.08    0.08    1.00
  YS02001890YS02001895 CONDUIT    517.16     0  03:03      0.66    0.24    1.00
  YS02001895YS02001898 CONDUIT    517.39     0  03:00      0.66    0.90    1.00
  YS02001898YS02001901 CONDUIT    517.21     0  03:01      0.66    0.33    1.00
  YS02001901YS02001904 CONDUIT    517.50     0  02:57      0.66    0.80    1.00
  YS02001904YS02001907 CONDUIT    517.50     0  02:57      0.66    0.18    1.00
  YS02001887YS02001890 CONDUIT    679.96     0  03:01      0.87    1.16    1.00
  YS02001652YS02001649 CONDUIT    500.55     0  03:01      0.64    0.25    1.00
  YS02001655YS02001652 CONDUIT    500.64     0  03:01      0.94    0.24    1.00
  YS02001658YS02001655 CONDUIT    500.78     0  03:01      1.18    0.21    1.00
  YS02001661YS02001658 CONDUIT    500.61     0  03:01      1.52    0.20    1.00
  YS02001664YS02001661 CONDUIT    638.96     0  02:45      1.43    0.20    0.77
  YSB1154YSB6556       CONDUIT     43.29     0  03:01      0.18    0.08    0.73
  YSB1174YSB1171       CONDUIT     36.65     0  03:01      0.11    0.06    0.85
  YSB1171HS02004479    CONDUIT     75.43     0  03:02      0.54    0.05    0.68
  HS02004881HS02006253 CONDUIT    140.49     0  03:01      2.33    0.03    0.54
  YS02001793JiankangQianchi CONDUIT    985.26     0  03:00     16.70    0.08    1.00
  YS02001757CaochengTiaoxuchi CONDUIT   1682.35     0  02:40      2.17    0.74    1.00
  WSF200WS02003060     CONDUIT    939.00     0  03:04      1.93    0.21    0.45
  1                    CONDUIT   1333.30     0  03:07      3.59    0.46    0.48
  CC-Pump-1            PUMP       200.00     0  03:00              1.00
  CC-Pump-2            PUMP       200.00     0  05:10              1.00
  JK-Pump-1            PUMP       300.00     0  00:00              1.00
  JK-Pump-2            PUMP       683.00     0  02:50              1.00
  XR-Pump-1            PUMP        95.00     0  00:00              1.00
  XR-Pump-2            PUMP        95.00     0  00:00              1.00
  XR-Pump-3            PUMP        95.00     0  00:00              1.00
  XR-Pump-4            PUMP        95.00     0  00:00              1.00
  
  
  ***************************
  Flow Classification Summary
  ***************************
  
  -------------------------------------------------------------------------------------
                      Adjusted    ---------- Fraction of Time in Flow Class ---------- 
                       /Actual         Up    Down  Sub   Sup   Up    Down  Norm  Inlet 
  Conduit               Length    Dry  Dry   Dry   Crit  Crit  Crit  Crit  Ltd   Ctrl  
  -------------------------------------------------------------------------------------
  WS02003066WSF200        1.00   0.01  0.02  0.00  0.00  0.97  0.00  0.00  0.52  0.00
  WS02006287WS02006284    1.00   0.03  0.01  0.00  0.61  0.35  0.00  0.00  0.65  0.00
  WS02006284WS02006280    1.00   0.04  0.00  0.00  0.00  0.00  0.00  0.96  0.00  0.00
  WS02006280WS02006229    1.00   0.04  0.00  0.00  0.01  0.02  0.00  0.93  0.01  0.00
  WS02006229WS02006228    1.00   0.00  0.00  0.00  1.00  0.00  0.00  0.00  0.00  0.00
  WS02006256WS02006235    1.00   0.00  0.00  0.00  1.00  0.00  0.00  0.00  0.00  0.00
  WS02006253WS02006251    1.00   0.02  0.02  0.00  0.96  0.00  0.01  0.00  0.00  0.00
  WS02006252WS02006251    1.00   0.18  0.00  0.00  0.16  0.00  0.66  0.00  0.00  0.00
  WS02006251WS02006249    1.00   0.00  0.00  0.00  1.00  0.00  0.00  0.00  0.22  0.00
  WS02006249WS02006248    1.00   0.00  0.01  0.00  0.90  0.00  0.09  0.00  0.00  0.00
  WS02006248WS02006247    1.00   0.01  0.00  0.00  0.99  0.00  0.00  0.00  0.15  0.00
  WS02006247WS02006245    1.00   0.00  0.00  0.00  0.99  0.00  0.00  0.00  0.00  0.00
  WS02006245WS02006243    1.00   0.00  0.00  0.00  0.96  0.00  0.00  0.04  0.01  0.00
  WS02006243WS02006242    1.00   0.00  0.00  0.00  1.00  0.00  0.00  0.00  0.21  0.00
  WS02006242WS02006240    1.00   0.00  0.00  0.00  1.00  0.00  0.00  0.00  0.00  0.00
  WS02006240WS02006239    1.00   0.00  0.00  0.00  0.95  0.00  0.00  0.05  0.01  0.00
  WS02006239WS02006238    1.00   0.00  0.00  0.00  1.00  0.00  0.00  0.00  0.13  0.00
  WS02006238WS02006235    1.00   0.00  0.00  0.00  1.00  0.00  0.00  0.00  0.00  0.00
  WS02006235WS02006234    1.00   0.00  0.00  0.00  0.96  0.00  0.04  0.00  0.00  0.00
  WS02006234WS02006232    1.00   0.00  0.00  0.00  1.00  0.00  0.00  0.00  0.09  0.00
  WS02006232WS02006231    1.00   0.00  0.00  0.00  1.00  0.00  0.00  0.00  0.00  0.00
  WS02006231WS02006230    1.00   0.00  0.00  0.00  0.78  0.00  0.22  0.00  0.00  0.00
  WS02006230WS02006229    1.00   0.00  0.00  0.00  1.00  0.00  0.00  0.00  0.00  0.00
  WS02006228WS02006109    1.00   0.00  0.00  0.00  1.00  0.00  0.00  0.00  0.00  0.00
  WS02006116WS02004401    1.00   0.01  0.00  0.00  0.99  0.00  0.00  0.00  0.00  0.00
  WS02006115WS02006116    1.00   0.01  0.00  0.00  0.99  0.00  0.00  0.00  0.00  0.00
  WS02006113WS02006111    1.00   0.01  0.00  0.00  0.03  0.96  0.00  0.00  0.15  0.00
  WS02006112WS02006115    1.00   0.01  0.00  0.00  0.99  0.00  0.00  0.00  0.00  0.00
  WS02006111WS02006112    1.00   0.01  0.00  0.00  0.99  0.00  0.00  0.00  0.89  0.00
  WS02006110WS02006113    1.00   0.00  0.00  0.00  0.99  0.00  0.00  0.00  0.00  0.00
  WS02006109WS02006110    1.00   0.00  0.00  0.00  0.99  0.00  0.00  0.00  0.00  0.00
  WS02004411WS02004412    1.00   0.02  0.00  0.00  0.98  0.00  0.00  0.00  0.00  0.00
  WS02004401WS02004402    1.00   0.01  0.00  0.00  0.99  0.00  0.00  0.00  0.00  0.00
  WS02004413WS02003067    1.00   0.02  0.01  0.00  0.00  0.00  0.97  0.00  0.00  0.00
  WS02004412WS02004413    1.00   0.02  0.00  0.00  0.98  0.00  0.00  0.00  0.01  0.00
  WS02004410WS02004411    1.00   0.02  0.00  0.00  0.98  0.00  0.00  0.00  0.00  0.00
  WS02004409WS02004410    1.00   0.02  0.00  0.00  0.98  0.00  0.00  0.00  0.02  0.00
  WS02004407WS02004409    1.00   0.02  0.00  0.00  0.98  0.00  0.00  0.00  0.95  0.00
  WS02004406WS02004407    1.00   0.00  0.02  0.00  0.98  0.00  0.00  0.00  0.00  0.00
  WS02004405WS02004406    1.00   0.00  0.00  0.00  1.00  0.00  0.00  0.00  0.00  0.00
  WS02004404WS02004405    1.00   0.00  0.00  0.00  1.00  0.00  0.00  0.00  0.00  0.00
  WS02004403WS02004404    1.00   0.00  0.01  0.00  0.99  0.00  0.00  0.00  0.00  0.00
  WS02004402WS02004403    1.00   0.01  0.00  0.00  0.99  0.00  0.00  0.00  0.00  0.00
  WS02004139WS02001211    1.00   0.00  0.00  0.00  1.00  0.00  0.00  0.00  0.00  0.00
  WS02004138WS02004139    1.00   0.00  0.00  0.00  1.00  0.00  0.00  0.00  1.00  0.00
  WS02003067WS02003066    1.00   0.03  0.00  0.00  0.97  0.00  0.00  0.00  0.00  0.00
  WS02001213WS02003059    1.00   0.00  0.00  0.00  1.00  0.00  0.00  0.00  0.00  0.00
  WS02001212WS02001213    1.00   0.00  0.00  0.00  0.92  0.00  0.08  0.00  0.00  0.00
  WS02001211WS02001212    1.00   0.00  0.00  0.00  1.00  0.00  0.00  0.00  0.00  0.00
  WS02003072WS02003073    1.00   0.00  0.00  0.00  0.00  0.00  0.00  1.00  0.00  0.00
  WS02003069WS02003072    1.00   0.00  0.00  0.00  1.00  0.00  0.00  0.00  0.13  0.00
  WS02003060WS02003069    1.00   0.00  0.00  0.00  0.99  0.01  0.00  0.00  0.10  0.00
  WS02003059WS02003060    1.00   0.00  0.00  0.00  1.00  0.00  0.00  0.00  0.01  0.00
  HS02004901HS02004770    1.00   0.04  0.00  0.00  0.96  0.00  0.00  0.00  0.00  0.00
  HS02004876HS02004881    1.00   0.01  0.00  0.00  0.92  0.07  0.00  0.00  0.00  0.00
  HS02004870HS02004876    1.00   0.00  0.00  0.00  0.99  0.00  0.00  0.00  0.95  0.00
  HS02004842HS02004848    1.00   0.00  0.04  0.00  0.96  0.00  0.00  0.00  0.54  0.00
  HS02004837HS02004842    1.00   0.00  0.00  0.00  1.00  0.00  0.00  0.00  0.11  0.00
  HS02004830HS02004837    1.00   0.00  0.00  0.00  1.00  0.00  0.00  0.00  0.99  0.00
  HS02004824HS02004830    1.00   0.00  0.00  0.00  1.00  0.00  0.00  0.00  0.01  0.00
  HS02004817HS02004824    1.00   0.00  0.00  0.00  1.00  0.00  0.00  0.00  0.97  0.00
  HS02004770HS02004777    1.00   0.00  0.04  0.00  0.96  0.00  0.00  0.00  0.03  0.00
  HS02004799HS02004480    1.00   0.00  0.01  0.00  0.96  0.00  0.03  0.00  0.00  0.00
  HS02004792HS02004799    1.00   0.00  0.00  0.00  1.00  0.00  0.00  0.00  0.98  0.00
  HS02004788HS02004792    1.00   0.00  0.00  0.00  1.00  0.00  0.00  0.00  0.98  0.00
  HS02004785HS02004788    1.00   0.00  0.00  0.00  1.00  0.00  0.00  0.00  0.00  0.00
  HS02004777HS02004785    1.00   0.00  0.00  0.00  1.00  0.00  0.00  0.00  0.12  0.00
  HS02004480HS02004478    1.00   0.04  0.00  0.00  0.71  0.00  0.00  0.26  0.00  0.00
  HS02004479HS02004480    1.00   0.01  0.00  0.00  0.99  0.00  0.00  0.00  0.12  0.00
  HS02004862HS02004870    1.00   0.00  0.00  0.00  1.00  0.00  0.00  0.00  0.04  0.00
  HS02004848HS02004852    1.00   0.04  0.00  0.00  0.96  0.00  0.00  0.00  0.64  0.00
  HS02004856HS02004862    1.00   0.00  0.05  0.00  0.95  0.00  0.00  0.00  0.83  0.00
  HS02004852HS02004856    1.00   0.04  0.00  0.00  0.96  0.00  0.00  0.00  0.80  0.00
  HS02004802HS02004478    1.00   0.04  0.00  0.00  0.96  0.00  0.00  0.00  0.02  0.00
  HS02004478WS02006287    1.00   0.04  0.00  0.00  0.79  0.17  0.00  0.00  0.65  0.00
  HS02004817HS02004807    1.00   0.00  0.04  0.00  0.96  0.00  0.00  0.00  0.01  0.00
  HS02004807HS02004802    1.00   0.04  0.00  0.00  0.96  0.00  0.00  0.00  0.00  0.00
  YS02001759YS02001757    1.00   0.00  0.00  0.00  1.00  0.00  0.00  0.00  0.16  0.00
  YS02001762YS02001759    1.00   0.00  0.00  0.00  1.00  0.00  0.00  0.00  0.03  0.00
  YS02001765YS02001762    1.00   0.00  0.00  0.00  1.00  0.00  0.00  0.00  0.14  0.00
  YS02001770YS02001767    1.00   0.00  0.00  0.00  1.00  0.00  0.00  0.00  0.00  0.00
  YS02001774YS02001770    1.00   0.00  0.04  0.00  0.96  0.00  0.00  0.00  0.03  0.00
  YS02001779YS02001774    1.00   0.00  0.00  0.00  1.00  0.00  0.00  0.00  0.19  0.00
  YS02001649YS02001757    1.00   0.00  0.00  0.00  1.00  0.00  0.00  0.00  0.16  0.00
  YS02001767YS02001765    1.00   0.00  0.00  0.00  1.00  0.00  0.00  0.00  0.00  0.00
  YS02006561YS02001783    1.00   0.05  0.00  0.00  0.35  0.60  0.00  0.00  0.45  0.00
  YS02001783YS02001784    1.00   0.00  0.05  0.00  0.95  0.00  0.00  0.00  0.01  0.00
  YS02001784YS02001785    1.00   0.00  0.00  0.00  1.00  0.00  0.00  0.00  0.18  0.00
  YS02001788YS02001790    1.00   0.00  0.00  0.00  0.37  0.63  0.00  0.00  0.38  0.00
  YS02001790YS02001791    1.00   0.00  0.00  0.00  0.33  0.67  0.00  0.00  0.48  0.00
  YS02001791YS02001793    1.00   0.00  0.00  0.00  0.36  0.64  0.00  0.00  0.02  0.00
  YS02001910YS02001907    1.00   0.00  0.00  0.00  0.99  0.00  0.00  0.01  0.12  0.00
  YS02001786YS02001788    1.00   0.00  0.00  0.00  0.36  0.64  0.00  0.00  0.00  0.00
  YS02001915YS02001910    1.00   0.00  0.00  0.00  0.99  0.01  0.00  0.00  0.16  0.00
  YS02001918YS02001915    1.00   0.00  0.00  0.00  0.99  0.01  0.00  0.00  0.54  0.00
  YS02001923YS02001920    1.00   0.00  0.00  0.00  1.00  0.00  0.00  0.00  0.82  0.00
  YS02001926YS02001923    1.00   0.00  0.02  0.00  0.15  0.00  0.82  0.00  0.00  0.00
  YS02001929YS02001926    1.00   0.00  0.04  0.00  0.96  0.00  0.00  0.00  0.74  0.00
  YS02001920YS02001918    1.00   0.00  0.00  0.00  1.00  0.00  0.00  0.00  0.00  0.00
  YS02001629YS02163301    1.00   0.04  0.00  0.00  0.95  0.00  0.00  0.00  0.00  0.00
  YS02001619YS02001622    1.00   0.04  0.00  0.00  0.96  0.00  0.00  0.00  0.00  0.00
  YS02001622YS02001625    1.00   0.04  0.00  0.00  0.96  0.00  0.00  0.00  0.05  0.00
  YS02001625YS02001629    1.00   0.04  0.02  0.00  0.93  0.00  0.02  0.00  0.00  0.00
  YS02163301YS02001633    1.00   0.00  0.04  0.00  0.96  0.00  0.00  0.00  0.00  0.00
  YS02163601YS02164001    1.00   0.00  0.03  0.00  0.97  0.00  0.00  0.00  0.00  0.00
  YS02164001YS02001641    1.00   0.00  0.02  0.00  0.97  0.00  0.00  0.00  0.06  0.00
  YS02001641YS02001644    1.00   0.00  0.00  0.00  1.00  0.00  0.00  0.00  0.00  0.00
  YS02001647YS02001649    1.00   0.00  0.05  0.00  0.95  0.00  0.00  0.00  0.01  0.00
  YS02006553YS02006556    1.00   0.01  0.00  0.00  0.99  0.00  0.00  0.00  0.03  0.00
  YS02006556YS02006558    1.00   0.00  0.00  0.00  1.00  0.00  0.00  0.00  0.00  0.00
  YSB6556YSB1171          1.00   0.02  0.02  0.00  0.96  0.00  0.00  0.00  0.00  0.00
  YS02001907YS02006553    1.00   0.00  0.01  0.00  0.99  0.00  0.00  0.00  0.00  0.00
  YS02006558YS02006561    1.00   0.05  0.00  0.00  0.16  0.79  0.00  0.00  0.46  0.00
  YS02001633YS02163601    1.00   0.00  0.00  0.00  1.00  0.00  0.00  0.00  0.15  0.00
  YS02001644YS02001647    1.00   0.00  0.05  0.00  0.95  0.00  0.00  0.00  0.00  0.00
  YS02001745YS02001748    1.00   0.00  0.00  0.00  0.91  0.00  0.00  0.09  0.04  0.00
  YS02001748YS02001751    1.00   0.00  0.00  0.00  0.97  0.03  0.00  0.00  0.15  0.00
  YS02001751YS02001754    1.00   0.00  0.00  0.00  0.94  0.00  0.00  0.06  0.02  0.00
  YS02001754YS02001757    1.00   0.00  0.00  0.00  1.00  0.00  0.00  0.00  0.18  0.00
  YS02001882YS02001884    1.00   0.04  0.00  0.00  0.96  0.00  0.00  0.00  0.00  0.00
  YS02001884YS02001887    1.00   0.02  0.01  0.00  0.97  0.00  0.00  0.00  0.00  0.00
  YS02001890YS02001895    1.00   0.00  0.04  0.00  0.95  0.00  0.00  0.00  0.00  0.00
  YS02001895YS02001898    1.00   0.05  0.00  0.00  0.94  0.00  0.01  0.00  0.00  0.00
  YS02001898YS02001901    1.00   0.05  0.00  0.00  0.95  0.00  0.00  0.00  0.01  0.00
  YS02001901YS02001904    1.00   0.05  0.00  0.00  0.95  0.00  0.00  0.00  0.00  0.00
  YS02001904YS02001907    1.00   0.00  0.04  0.00  0.95  0.00  0.00  0.00  0.00  0.00
  YS02001887YS02001890    1.00   0.00  0.00  0.00  0.99  0.00  0.01  0.00  0.00  0.00
  YS02001652YS02001649    1.00   0.00  0.00  0.00  1.00  0.00  0.00  0.00  0.17  0.00
  YS02001655YS02001652    1.00   0.00  0.00  0.00  0.94  0.00  0.00  0.06  0.02  0.00
  YS02001658YS02001655    1.00   0.00  0.04  0.00  0.93  0.03  0.00  0.00  0.10  0.00
  YS02001661YS02001658    1.00   0.04  0.00  0.00  0.90  0.06  0.00  0.00  0.11  0.00
  YS02001664YS02001661    1.00   0.04  0.00  0.00  0.92  0.04  0.00  0.00  0.20  0.00
  YSB1154YSB6556          1.00   0.04  0.00  0.00  0.96  0.00  0.00  0.00  0.02  0.00
  YSB1174YSB1171          1.00   0.02  0.01  0.00  0.97  0.00  0.00  0.00  0.00  0.00
  YSB1171HS02004479       1.00   0.02  0.00  0.00  0.98  0.00  0.00  0.00  0.10  0.00
  HS02004881HS02006253    1.00   0.02  0.00  0.00  0.73  0.01  0.00  0.24  0.56  0.00
  YS02001793JiankangQianchi    1.00   0.00  0.00  0.00  0.62  0.38  0.00  0.00  0.40  0.00
  YS02001757CaochengTiaoxuchi    1.00   0.00  0.07  0.00  0.93  0.00  0.00  0.00  0.00  0.00
  WSF200WS02003060        1.00   0.00  0.01  0.00  0.98  0.01  0.00  0.00  0.36  0.00
  1                       1.00   0.00  0.00  0.00  0.00  1.00  0.00  0.00  0.52  0.00
  
  
  *************************
  Conduit Surcharge Summary
  *************************
  
  ----------------------------------------------------------------------------
                                                           Hours        Hours 
                         --------- Hours Full --------   Above Full   Capacity
  Conduit                Both Ends  Upstream  Dnstream   Normal Flow   Limited
  ----------------------------------------------------------------------------
  WS02006229WS02006228        4.30      4.40      4.30      5.07         4.30
  WS02006256WS02006235        5.99      6.00      6.84      4.50         0.01
  WS02006253WS02006251        2.39      2.40      2.47      0.01         0.01
  WS02006252WS02006251        2.08      2.08      2.88      2.43         0.01
  WS02006251WS02006249        2.41      2.42      2.48      1.58         1.30
  WS02006249WS02006248        2.40      2.40      2.48      3.76         0.01
  WS02006248WS02006247        2.46      2.46      2.67      0.01         0.01
  WS02006247WS02006245        2.64      2.73      2.64      4.22         2.53
  WS02006245WS02006243        2.68      2.70      2.85      0.46         0.46
  WS02006243WS02006242        2.95      2.95      3.51      0.01         0.01
  WS02006242WS02006240        3.33      3.33      3.62      2.48         0.01
  WS02006240WS02006239        3.34      3.38      3.40      1.24         0.87
  WS02006239WS02006238        3.55      3.60      3.67      1.38         1.06
  WS02006238WS02006235        3.62      3.62      3.85      0.01         0.01
  WS02006235WS02006234        3.38      3.38      3.54      5.87         0.01
  WS02006234WS02006232        3.47      3.47      4.09      1.18         1.12
  WS02006232WS02006231        2.33      2.33      4.09      1.46         0.01
  WS02006231WS02006230        1.87      1.87      2.43      6.10         0.01
  WS02006230WS02006229        4.77      4.98      4.77      6.25         4.77
  WS02006228WS02006109        4.35      4.60      4.35      5.35         4.35
  WS02006116WS02004401        0.48      0.48      0.48      0.42         0.42
  WS02006115WS02006116        0.36      0.36      0.37      0.32         0.32
[...]
  YS02001770YS02001767        5.69      5.69      5.69      0.19         0.71
  YS02001774YS02001770        5.68      5.68      5.74      0.01         0.01
  YS02001779YS02001774        5.56      5.56      5.74      0.01         0.01
  YS02001649YS02001757        5.75      5.75      5.86      0.01         0.01
  YS02001767YS02001765        5.69      5.69      5.72      0.01         0.01
  YS02006561YS02001783        0.98      0.98      1.26      0.01         0.01
  YS02001783YS02001784        1.24      1.26      1.24      1.53         1.22
  YS02001784YS02001785        1.19      1.24      1.19      2.51         1.19
  YS02001788YS02001790        1.14      1.14      1.84      0.01         0.01
  YS02001790YS02001791        1.84      1.84      1.93      1.09         1.06
  YS02001791YS02001793        1.93      1.93      2.26      0.01         0.01
  YS02001910YS02001907        1.25      1.25      1.87      0.01         0.01
  YS02001786YS02001788        1.14      1.19      1.14      2.09         1.13
  YS02001915YS02001910        1.09      1.09      1.25      0.01         0.01
  YS02001918YS02001915        0.93      0.93      1.09      0.01         0.01
  YS02001923YS02001920        0.78      0.78      0.95      0.01         0.01
  YS02001920YS02001918        0.93      0.93      0.95      0.01         0.01
  YS02001629YS02163301        5.67      5.67      5.68      0.01         0.01
  YS02001619YS02001622        5.40      5.40      5.41      0.01         0.01
  YS02001622YS02001625        5.41      5.41      5.64      0.01         0.01
  YS02001625YS02001629        5.40      5.40      5.64      0.01         0.01
  YS02163301YS02001633        5.68      5.68      5.72      0.01         0.01
  YS02163601YS02164001        5.72      5.72      5.75      0.01         0.01
  YS02164001YS02001641        5.72      5.72      5.73      0.01         0.02
  YS02001641YS02001644        5.73      5.73      5.73      1.72         1.89
  YS02001647YS02001649        5.62      5.62      5.75      0.01         0.01
  YS02006553YS02006556        1.47      1.47      1.97      0.01         0.01
  YS02006556YS02006558        1.68      1.68      2.04      0.01         0.01
  YSB6556YSB1171              0.01      0.01      0.07      0.01         0.01
  YS02001907YS02006553        2.53      2.53      2.76      0.01         0.01
  YS02006558YS02006561        1.10      1.43      1.10      2.36         1.10
  YS02001633YS02163601        5.71      5.71      5.75      0.01         0.01
  YS02001644YS02001647        5.62      5.62      5.73      0.01         0.01
  YS02001745YS02001748        0.01      0.01      5.22      0.01         0.01
  YS02001748YS02001751        5.26      5.26      5.38      0.01         0.01
  YS02001751YS02001754        5.38      5.38      5.58      0.01         0.01
  YS02001754YS02001757        5.61      5.61      5.86      0.01         0.01
  YS02001882YS02001884        1.10      1.10      1.13      0.01         0.01
  YS02001884YS02001887        1.17      1.17      1.19      0.01         0.01
  YS02001890YS02001895        1.08      1.08      1.27      0.01         0.01
  YS02001895YS02001898        1.07      1.07      1.08      0.01         0.01
  YS02001898YS02001901        1.09      1.09      1.16      0.01         0.01
  YS02001901YS02001904        1.14      1.14      1.16      0.01         0.01
  YS02001904YS02001907        1.14      1.14      2.00      0.01         0.01
  YS02001887YS02001890        1.21      1.21      1.24      0.16         0.01
  YS02001652YS02001649        5.63      5.63      5.75      0.01         0.01
  YS02001655YS02001652        5.41      5.41      5.61      0.01         0.01
  YS02001658YS02001655        5.24      5.24      5.41      0.01         0.01
  YS02001661YS02001658        0.14      0.14      5.24      0.01         0.01
  YS02001664YS02001661        0.01      0.01      1.12      0.01         0.01
  HS02004881HS02006253        0.01      0.01      1.53      0.01         0.01
  YS02001793JiankangQianchi        2.18      2.18      3.78      0.01         0.01
  YS02001757CaochengTiaoxuchi        5.11      5.11      5.86      0.01         0.01
  
  
  ***************
  Pumping Summary
  ***************
  
  ---------------------------------------------------------------------------------------------------------
                                                  Min       Avg       Max     Total     Power    % Time Off
                        Percent   Number of      Flow      Flow      Flow    Volume     Usage    Pump Curve
  Pump                 Utilized   Start-Ups       LPS       LPS       LPS  10^6 ltr     Kw-hr    Low   High
  ---------------------------------------------------------------------------------------------------------
  CC-Pump-1               63.81           3      0.00    172.19    200.00     3.060      3.30    0.0    0.0
  CC-Pump-2               46.80           6      0.00    101.29    200.00     1.620      2.17    0.0    0.0
  JK-Pump-1               61.69           5      0.00    228.47    300.00     3.879     61.57    0.0    0.0
  JK-Pump-2               55.31           4      0.00    427.12    683.00     6.646     94.61    0.0   96.1
  XR-Pump-1               97.87           2      0.00     94.00     95.00     2.565     25.14    0.0    0.0
  XR-Pump-2               97.87           2      0.00     94.00     95.00     2.565     25.14    0.0    0.0
  XR-Pump-3               93.62           3      0.00     93.50     95.00     2.394     21.24    0.0    0.0
  XR-Pump-4               93.62           3      0.00     93.50     95.00     2.394     21.24    0.0    0.0
  
  
  ***************************
  Link Pollutant Load Summary
  ***************************
  
  ------------------------------------------------------------------------------------------
                                 COD            SS            TN            TP         NH4-N
  Link                            kg            kg            kg            kg            kg
  ------------------------------------------------------------------------------------------
  WS02003066WSF200           891.081      1665.440        23.038         1.998        12.089
  WS02006287WS02006284       319.505       608.168        10.316         1.015         5.679
  WS02006284WS02006280       319.992       608.968        10.362         1.021         5.708
  WS02006280WS02006229       319.932       608.847        10.359         1.021         5.707
  WS02006229WS02006228       896.234      1674.607        22.601         1.925        11.779
  WS02006256WS02006235       188.874       349.319         4.246         0.336         2.160
  WS02006253WS02006251        63.105       123.781         1.400         0.105         0.695
  WS02006252WS02006251       401.979       737.280         8.177         0.574         3.986
  WS02006251WS02006249       454.467       841.786         9.377         0.667         4.588
  WS02006249WS02006248       401.033       740.812         8.297         0.591         4.062
  WS02006248WS02006247       400.247       739.418         8.280         0.589         4.054
  WS02006247WS02006245       399.411       737.911         8.262         0.588         4.045
  WS02006245WS02006243       398.372       736.124         8.235         0.586         4.031
  WS02006243WS02006242       397.956       735.416         8.227         0.585         4.027
  WS02006242WS02006240       397.439       734.611         8.215         0.585         4.021
  WS02006240WS02006239       398.013       735.789         8.228         0.586         4.028
  WS02006239WS02006238       399.347       738.074         8.278         0.591         4.057
  WS02006238WS02006235       399.641       738.415         8.295         0.593         4.068
  WS02006235WS02006234       581.932      1075.757        12.373         0.914         6.139
  WS02006234WS02006232       580.930      1073.944        12.357         0.914         6.132
  WS02006232WS02006231       579.856      1072.033        12.333         0.912         6.120
  WS02006231WS02006230       578.715      1069.981        12.310         0.910         6.109
  WS02006230WS02006229       577.439      1067.759        12.274         0.907         6.090
  WS02006228WS02006109       894.877      1672.180        22.571         1.923        11.764
  WS02006116WS02004401       905.343      1691.129        23.351         2.021        12.245
  WS02006115WS02006116       907.110      1694.270        23.395         2.024        12.267
  WS02006113WS02006111       899.506      1678.912        23.285         2.016        12.221
  WS02006112WS02006115       908.835      1697.302        23.447         2.029        12.296
  WS02006111WS02006112       898.723      1677.526        23.266         2.015        12.211
  WS02006110WS02006113       900.427      1680.530        23.313         2.019        12.236
  WS02006109WS02006110       902.026      1683.351        23.364         2.024        12.264
  WS02004411WS02004412       894.806      1672.073        23.160         2.010        12.157
  WS02004401WS02004402       903.754      1688.322        23.304         2.017        12.219
  WS02004413WS02003067       891.851      1666.871        23.054         1.999        12.098
  WS02004412WS02004413       893.442      1669.647        23.120         2.006        12.135
  WS02004410WS02004411       895.996      1674.208        23.192         2.013        12.174
  WS02004409WS02004410       897.211      1676.375        23.228         2.016        12.193
  WS02004407WS02004409       898.283      1678.305        23.253         2.018        12.206
  WS02004406WS02004407       898.674      1679.043        23.255         2.017        12.206
  WS02004405WS02004406       900.288      1681.895        23.312         2.023        12.238
  WS02004404WS02004405       901.445      1684.029        23.315         2.022        12.235
  WS02004403WS02004404       901.109      1683.632        23.229         2.010        12.179
  WS02004402WS02004403       902.314      1685.764        23.266         2.014        12.200
  WS02004139WS02001211      1382.377      2295.230       112.227        13.699        69.178
  WS02004138WS02004139      1388.774      2305.913       112.722        13.759        69.481
  WS02003067WS02003066       891.320      1665.879        23.046         1.999        12.094
  WS02001213WS02003059      1415.139      2346.667       115.634        14.129        71.319
  WS02001212WS02001213      1424.438      2362.078       116.387        14.221        71.784
  WS02001211WS02001212      1426.626      2365.653       116.576        14.244        71.900
  WS02003072WS02003073      2406.148      4170.643       148.676        17.384        89.678
  WS02003069WS02003072      2410.895      4178.451       149.056        17.431        89.912
  WS02003060WS02003069      2413.619      4183.183       149.201        17.447        89.998
  WS02003059WS02003060      1411.855      2341.114       115.400        14.101        71.176
  HS02004901HS02004770        13.094        25.475         0.248         0.019         0.116
  HS02004876HS02004881        45.518        90.353         0.999         0.073         0.491
  HS02004870HS02004876        34.384        68.108         0.798         0.060         0.395
  HS02004842HS02004848         6.456        12.343         0.134         0.009         0.062
  HS02004837HS02004842        11.056        19.635         0.603         0.068         0.356
  HS02004830HS02004837        70.299       122.729         4.644         0.552         2.827
  HS02004824HS02004830        71.071       123.985         4.715         0.561         2.871
  HS02004817HS02004824        97.166       176.412         5.255         0.596         3.135
  HS02004770HS02004777        49.664        97.717         1.021         0.069         0.472
  HS02004799HS02004480       162.331       310.855         4.263         0.379         2.209
  HS02004792HS02004799       147.279       280.135         4.028         0.367         2.105
  HS02004788HS02004792        82.819       157.692         2.666         0.255         1.440
  HS02004785HS02004788        51.123       100.053         1.172         0.089         0.567
  HS02004777HS02004785        50.447        98.946         1.112         0.081         0.530
  HS02004480HS02004478       204.832       395.211         4.972         0.429         2.543
  HS02004479HS02004480        46.129        90.116         1.037         0.091         0.538
  HS02004862HS02004870        25.801        50.342         0.628         0.050         0.314
  HS02004848HS02004852        10.252        19.885         0.210         0.014         0.097
  HS02004856HS02004862        17.525        34.750         0.350         0.023         0.164
  HS02004852HS02004856        10.256        19.890         0.210         0.014         0.097
  HS02004802HS02004478       115.345       214.058         5.398         0.592         3.169
  HS02004478WS02006287       319.715       608.532        10.332         1.017         5.690
  HS02004817HS02004807        95.861       174.318         5.130         0.581         3.057
  HS02004807HS02004802       115.601       214.459         5.430         0.596         3.190
  YS02001759YS02001757       372.114       685.156         7.403         0.515         3.616
  YS02001762YS02001759       154.996       284.570         3.320         0.235         1.647
  YS02001765YS02001762       155.181       285.361         3.343         0.238         1.661
  YS02001770YS02001767       154.735       285.990         3.137         0.207         1.524
  YS02001774YS02001770       243.426       474.921         4.679         0.309         2.260
  YS02001779YS02001774       242.508       473.122         4.758         0.322         2.316
  YS02001649YS02001757       329.421       592.018         6.610         0.459         3.172
  YS02001767YS02001765       155.814       286.937         3.369         0.239         1.675
  YS02006561YS02001783      1017.769      1886.246        21.344         1.593        10.622
  YS02001783YS02001784      1017.599      1885.962        21.339         1.593        10.620
  YS02001784YS02001785      1024.898      1897.649        22.052         1.682        11.065
  YS02001788YS02001790      1025.408      1898.452        22.123         1.691        11.110
  YS02001790YS02001791      1026.452      1900.151        22.223         1.704        11.173
  YS02001791YS02001793      1026.342      1899.960        22.218         1.703        11.170
  YS02001910YS02001907       390.925       721.091         9.374         0.716         4.802
  YS02001786YS02001788      1025.052      1897.893        22.079         1.686        11.083
  YS02001915YS02001910       391.023       721.259         9.327         0.710         4.770
  YS02001918YS02001915       189.854       335.428         5.198         0.471         2.795
  YS02001923YS02001920       166.941       297.479         3.205         0.225         1.557
  YS02001926YS02001923       164.794       293.770         3.108         0.215         1.501
  YS02001929YS02001926       164.192       292.745         3.065         0.210         1.474
  YS02001920YS02001918       187.434       330.508         5.123         0.464         2.755
  YS02001629YS02163301        96.157       170.028         2.030         0.131         0.947
  YS02001619YS02001622       175.880       321.144         3.602         0.236         1.684
  YS02001622YS02001625       174.687       319.245         3.573         0.234         1.671
  YS02001625YS02001629        97.238       171.797         2.054         0.133         0.958
  YS02163301YS02001633        96.533       170.928         2.032         0.132         0.949
  YS02163601YS02164001       405.708       733.112         7.898         0.562         3.783
  YS02164001YS02001641       405.177       732.204         7.878         0.560         3.772
  YS02001641YS02001644       405.225       732.204         7.874         0.560         3.769
  YS02001647YS02001649       418.395       766.147         8.255         0.576         3.938
  YS02006553YS02006556       683.955      1256.879        14.720         1.128         7.410
  YS02006556YS02006558       683.835      1256.641        14.690         1.123         7.390
  YSB6556YSB1171              26.522        51.968         0.537         0.045         0.272
  YS02001907YS02006553       684.137      1257.244        14.730         1.129         7.416
  YS02006558YS02006561      1017.759      1886.224        21.344         1.593        10.622
  YS02001633YS02163601       406.444       734.264         7.880         0.558         3.768
  YS02001644YS02001647       425.293       778.386         8.370         0.585         3.991
  YS02001745YS02001748       245.811       460.692         5.097         0.330         2.482
  YS02001748YS02001751       246.017       460.695         5.269         0.355         2.596
  YS02001751YS02001754       245.039       459.082         5.252         0.354         2.589
  YS02001754YS02001757       245.793       460.204         5.416         0.377         2.696
  YS02001882YS02001884         2.512         4.321         0.051         0.004         0.026
  YS02001884YS02001887         6.824        12.084         0.135         0.010         0.067
  YS02001890YS02001895       450.891       846.321         8.300         0.624         4.049
  YS02001895YS02001898       450.704       846.063         8.293         0.624         4.045
  YS02001898YS02001901       450.448       845.621         8.288         0.623         4.042
  YS02001901YS02001904       450.240       845.300         8.293         0.624         4.046
  YS02001904YS02001907       450.403       845.532         8.345         0.631         4.080
  YS02001887YS02001890       468.260       880.763         8.645         0.653         4.223
  YS02001652YS02001649       197.426       367.508         3.969         0.286         1.862
  YS02001655YS02001652       197.952       368.366         3.983         0.287         1.869
  YS02001658YS02001655       197.475       367.623         3.896         0.275         1.812
  YS02001661YS02001658       198.078       368.624         3.910         0.276         1.819
  YS02001664YS02001661       216.894       400.028         4.328         0.305         2.010
  YSB1154YSB6556              26.086        51.272         0.486         0.038         0.239
  YSB1174YSB1171              18.022        35.564         0.361         0.029         0.181
  YSB1171HS02004479           46.093        90.060         1.040         0.092         0.540
  HS02004881HS02006253        51.794       103.274         1.108         0.080         0.543
  YS02001793JiankangQianchi      1026.902      1900.878        22.249         1.707        11.189
  YS02001757CaochengTiaoxuchi       654.240      1187.537        13.501         0.945         6.588
  WSF200WS02003060           890.773      1664.835        23.039         1.999        12.091
  1                         2411.713      4178.648       149.455        17.485        90.175
  CC-Pump-1                  264.757       486.134         5.378         0.378         2.621
  CC-Pump-2                  137.264       251.221         2.800         0.196         1.365
  JK-Pump-1                  250.088       467.814         5.453         0.424         2.753
  JK-Pump-2                  535.434      1009.700        10.993         0.819         5.454
  XR-Pump-1                  368.283       610.271        30.192         3.691        18.627
  XR-Pump-2                  368.283       610.271        30.192         3.691        18.627
  XR-Pump-3                  327.931       545.707        26.319         3.207        16.206
  XR-Pump-4                  327.931       545.707        26.319         3.207        16.206
  

  Analysis begun on:  Wed Jul 14 12:07:01 2021
  Analysis ended on:  Wed Jul 14 12:07:05 2021
  Total elapsed time: 00:00:04