
  EPA STORM WATER MANAGEMENT MODEL - VERSION 5.1 (Build 5.3.0.dev0)
  --------------------------------------------------------------

  WARNING 04: minimum elevation drop used for Conduit WS02004404WS02004405
  WARNING 03: negative offset ignored for Link YS02001904YS02001907
  
  *********************************************************
  NOTE: The summary statistics displayed in this report are
  based on results found at every computational time step,  
  not just on results from each reporting time step.
  *********************************************************
  
  ****************
  Analysis Options
  ****************
  Flow Units ............... LPS
  Process Models:
    Rainfall/Runoff ........ YES
    RDII ................... NO
    Snowmelt ............... NO
    Groundwater ............ NO
    Flow Routing ........... YES
    Ponding Allowed ........ NO
    Water Quality .......... YES
  Infiltration Method ...... HORTON
  Flow Routing Method ...... DYNWAVE
  Surcharge Method ......... EXTRAN
  Starting Date ............ 08/28/2015 08:00:00
  Ending Date .............. 08/28/2015 15:50:00
  Antecedent Dry Days ...... 8.0
  Report Time Step ......... 00:01:00
  Wet Time Step ............ 00:01:00
  Dry Time Step ............ 00:01:00
  Routing Time Step ........ 5.00 sec
  Variable Time Step ....... YES
  Maximum Trials ........... 8
  Number of Threads ........ 4
  Head Tolerance ........... 0.001500 m
  
  
  **************************        Volume         Depth
  Runoff Quantity Continuity     hectare-m            mm
  **************************     ---------       -------
  Total Precipitation ......         6.144        13.452
  Evaporation Loss .........         0.000         0.000
  Infiltration Loss ........         1.064         2.328
  Surface Runoff ...........         4.147         9.079
  Final Storage ............         0.935         2.047
  Continuity Error (%) .....        -0.020
  
  
  **************************           COD            SS            TN            TP         NH4-N
  Runoff Quality Continuity             kg            kg            kg            kg            kg
  **************************    ----------    ----------    ----------    ----------    ----------
  Initial Buildup ..........     41378.656     70582.865      1804.177       168.684      1032.807
  Surface Buildup ..........        21.799        40.924         2.400         0.218         1.395
  Wet Deposition ...........         0.000         0.000         0.000         0.000         0.000
  Sweeping Removal .........         0.000         0.000         0.000         0.000         0.000
  Infiltration Loss ........        97.311       184.943         1.849         0.130         0.881
  BMP Removal ..............         0.000         0.000         0.000         0.000         0.000
  Surface Runoff ...........      3769.819      7064.251        72.781         4.964        34.599
  Remaining Buildup ........     37531.916     63371.884      1731.919       163.806       998.709
  Continuity Error (%) .....         0.003         0.004         0.002         0.001         0.001
  
  
  **************************        Volume        Volume
  Flow Routing Continuity        hectare-m      10^6 ltr
  **************************     ---------     ---------
  Dry Weather Inflow .......         0.616         6.165
  Wet Weather Inflow .......         4.145        41.451
  Groundwater Inflow .......         0.000         0.000
  RDII Inflow ..............         0.000         0.000
  External Inflow ..........         0.102         1.024
  External Outflow .........         2.067        20.675
  Flooding Loss ............         2.348        23.477
  Evaporation Loss .........         0.000         0.000
  Exfiltration Loss ........         0.000         0.000
  Initial Stored Volume ....         0.076         0.761
  Final Stored Volume ......         0.654         6.545
  Continuity Error (%) .....        -2.625
  
  
  **************************           COD            SS            TN            TP         NH4-N
  Quality Routing Continuity            kg            kg            kg            kg            kg
  **************************    ----------    ----------    ----------    ----------    ----------
  Dry Weather Inflow .......      1541.201      2465.922       147.955        18.494        92.472
  Wet Weather Inflow .......      3769.031      7062.939        72.764         4.963        34.591
  Groundwater Inflow .......         0.000         0.000         0.000         0.000         0.000
  RDII Inflow ..............         0.000         0.000         0.000         0.000         0.000
  External Inflow ..........       183.418       293.469        17.608         2.201        11.005
  External Outflow .........      2448.323      4245.686       149.468        17.436        90.057
  Flooding Loss ............      2369.725      4419.589        61.527         5.411        32.437
  Exfiltration Loss ........         0.000         0.000         0.000         0.000         0.000
  Mass Reacted .............         0.000         0.000         0.000         0.000         0.000
  Initial Stored Mass ......         0.000         0.000         0.000         0.000         0.000
  Final Stored Mass ........       534.495       917.079        23.952         2.554        13.875
  Continuity Error (%) .....         2.569         2.443         1.418         1.005         1.231
  
  
  *************************
  Highest Continuity Errors
  *************************
  Node HS02004842 (13.41%)
  Node JK-storage (-12.37%)
  Node YS02001884 (9.27%)
  Node HS02004817 (2.53%)
  Node YSB1171 (2.46%)
  
  
  ***************************
  Time-Step Critical Elements
  ***************************
  Link WS02006252WS02006251 (68.03%)
  Link WS02006280WS02006229 (9.71%)
  Link YS02001793JiankangQianchi (6.34%)
  Link WS02004404WS02004405 (3.72%)
  Link WS02006238WS02006235 (2.32%)
  
  
  ********************************
  Highest Flow Instability Indexes
  ********************************
  Link WS02006113WS02006111 (38)
  Link YS02163601YS02164001 (36)
  Link YS02001629YS02163301 (35)
  Link YS02163301YS02001633 (34)
  Link YS02001619YS02001622 (33)
  
  
  *************************
  Routing Time Step Summary
  *************************
  Minimum Time Step           :     0.18 sec
  Average Time Step           :     1.10 sec
  Maximum Time Step           :     5.00 sec
  Percent in Steady State     :    -0.00
  Average Iterations per Step :     4.31
  Percent Not Converging      :    18.06
  
  
  ***************************
  Subcatchment Runoff Summary
  ***************************
  
  ------------------------------------------------------------------------------------------------------------------------------
                            Total      Total      Total      Total     Imperv       Perv      Total       Total     Peak  Runoff
                           Precip      Runon       Evap      Infil     Runoff     Runoff     Runoff      Runoff   Runoff   Coeff
  Subcatchment                 mm         mm         mm         mm         mm         mm         mm    10^6 ltr      LPS
  ------------------------------------------------------------------------------------------------------------------------------
  sub0                      13.45       0.00       0.00       0.63      12.47       0.31      12.77        0.01     3.75   0.950
  sub1                      13.45       0.00       0.00       1.12      11.88       0.36      12.24        0.08    25.66   0.910
  sub2                      13.45       0.00       0.00       4.44       8.39       0.53       8.92        0.08    25.29   0.663
  sub3                      13.45       0.00       0.00       4.56       8.35       0.42       8.77        0.20    55.75   0.652
  sub4                      13.45       0.00       0.00       1.22      11.71       0.26      11.97        0.25    65.52   0.890
  sub5                      13.45       0.00       0.00       0.68      12.41       0.26      12.67        0.14    44.76   0.942
  sub7                      13.45       0.00       0.00       0.86      12.18       0.35      12.53        0.04    14.26   0.931
  sub8                      13.45       0.00       0.00       0.87      12.17       0.34      12.50        0.08    26.26   0.930
  sub9                      13.45       0.00       0.00       0.88      12.17       0.33      12.50        0.06    19.64   0.929
  sub10                     13.45       0.00       0.00       0.78      12.29       0.29      12.58        0.14    44.00   0.935
  sub11                     13.45       0.00       0.00       0.77      12.30       0.31      12.61        0.15    48.45   0.938
  sub12                     13.45       0.00       0.00       1.25      11.66       0.50      12.16        0.11    38.10   0.904
  sub14                     13.45       0.00       0.00       0.88      12.16       0.33      12.49        0.12    38.67   0.929
  sub15                     13.45       0.00       0.00       3.37       9.35       0.66      10.01        0.17    57.01   0.744
  sub16                     13.45       0.00       0.00       3.56       8.97       0.88       9.85        0.10    37.63   0.732
  sub17                     13.45       0.00       0.00       3.47       9.10       0.84       9.94        0.09    30.67   0.739
  sub22                     13.45       0.00       0.00       4.98       7.63       0.81       8.43        0.53   184.54   0.627
  sub23                     13.45       0.00       0.00       4.17       8.43       0.81       9.24        0.44   154.22   0.687
  sub60                     13.45       0.00       0.00       1.53       9.85       0.09       9.93        3.01   438.14   0.738
  sub61                     13.45       0.00       0.00       2.16       9.95       0.12      10.07        3.11   536.45   0.749
  sub62                     13.45       0.00       0.00       0.98      10.84       0.10      10.94        3.36   552.35   0.813
  sub63                     13.45       0.00       0.00       3.77       8.69       0.14       8.83        2.67   492.63   0.656
  sub64                     13.45       0.00       0.00       1.93       9.45       0.09       9.54        2.90   416.72   0.709
  sub65                     13.45       0.00       0.00       1.67       9.61       0.08       9.70        2.98   423.09   0.721
  sub66                     13.45       0.00       0.00       3.81       8.10       0.09       8.18        2.51   380.66   0.608
  sub67                     13.45       0.00       0.00       0.95      11.38       0.13      11.51        3.55   679.52   0.856
  sub68                     13.45       0.00       0.00       1.75      10.45       0.13      10.59        3.26   586.26   0.787
  sub69                     13.45       0.00       0.00       1.83      10.79       0.19      10.98        2.57   544.72   0.816
  sub70                     13.45      11.20       0.00       7.51      14.65       0.88      15.52        3.55   494.81   0.630
  sub71                     13.45       0.00       0.00       0.99      10.58       0.09      10.67        2.52   389.24   0.793
  sub72                     13.45       0.00       0.00       0.89       8.56       0.05       8.61        1.75   189.18   0.640
  1                         13.45      15.11       0.00       1.37      16.56       4.63      21.19        4.98   484.42   0.742
  2                         13.45       0.00       0.00       3.02       3.21       1.96       5.17        2.07   340.45   0.384
  
  
  ****************************
  Subcatchment Washoff Summary
  ****************************
  
  ------------------------------------------------------------------------------------------
                                 COD            SS            TN            TP         NH4-N
  Subcatchment                    kg            kg            kg            kg            kg
  ------------------------------------------------------------------------------------------
  sub0                         2.670         5.197         0.046         0.004         0.022
  sub1                        11.241        22.423         0.210         0.015         0.101
  sub2                         6.894        13.384         0.145         0.010         0.067
  sub3                        16.924        32.573         0.350         0.024         0.161
  sub4                        25.772        51.904         0.510         0.031         0.245
  sub5                        25.778        50.682         0.460         0.035         0.223
  sub7                         5.751        11.638         0.108         0.007         0.052
  sub8                         8.581        17.755         0.171         0.010         0.082
  sub9                         7.353        15.005         0.142         0.009         0.068
  sub10                       21.202        42.223         0.389         0.028         0.188
  sub11                       20.657        41.614         0.386         0.026         0.187
  sub12                       17.724        35.094         0.321         0.024         0.155
  sub14                       15.732        31.800         0.298         0.020         0.144
  sub15                       20.231        39.321         0.389         0.028         0.182
  sub16                       13.129        25.518         0.249         0.019         0.117
  sub17                       12.049        23.208         0.222         0.017         0.105
  sub22                       62.582       119.432         1.186         0.090         0.554
  sub23                       36.683        72.439         0.776         0.051         0.357
  sub60                      243.520       456.962         4.842         0.298         2.321
  sub61                      302.151       564.434         5.627         0.386         2.710
  sub62                      313.722       596.076         6.119         0.388         2.938
  sub63                      223.275       410.850         4.468         0.314         2.075
  sub64                      305.877       553.773         5.626         0.410         2.687
  sub65                      313.037       569.066         5.795         0.415         2.772
  sub66                      176.068       321.340         3.608         0.236         1.687
  sub67                      466.222       877.505         8.365         0.616         4.045
  sub68                      332.037       626.413         6.347         0.429         3.034
  sub69                      298.258       568.561         5.590         0.393         2.674
  sub70                      502.897       962.303        10.037         0.699         4.710
  sub71                      206.745       396.330         4.242         0.246         2.030
  sub72                      164.385       293.107         3.069         0.210         1.476
  1                          349.075       671.606         7.102         0.495         3.297
  2                           42.749        75.577         1.214         0.073         0.518
  ------------------------------------------------------------------------------------------
  System                    4570.974      8595.115        88.408         6.057        41.983
  
  
  ******************
  Node Depth Summary
  ******************
  
  ---------------------------------------------------------------------------------
                                 Average  Maximum  Maximum  Time of Max    Reported
                                   Depth    Depth      HGL   Occurrence   Max Depth
  Node                 Type       Meters   Meters   Meters  days hr:min      Meters
  ---------------------------------------------------------------------------------
  WS02001211           JUNCTION     0.77     0.85     5.69     0  03:07        0.85
  WS02001212           JUNCTION     0.48     0.58     5.64     0  03:06        0.58
  WS02001213           JUNCTION     0.73     0.85     5.62     0  03:05        0.85
  WS02003069           JUNCTION     0.53     0.72     5.30     0  03:05        0.72
  WS02003072           JUNCTION     0.59     0.76     5.13     0  03:06        0.76
  WS02003073           JUNCTION     0.36     0.48     4.54     0  03:06        0.48
  WS02003060           JUNCTION     0.47     0.63     5.57     0  03:05        0.63
  WS02003066           JUNCTION     0.26     0.39     5.94     0  03:04        0.39
  WS02003059           JUNCTION     0.78     0.91     5.60     0  03:05        0.91
  WS02003067           JUNCTION     0.63     0.82     6.14     0  03:03        0.82
  WS02004401           JUNCTION     0.76     1.24     7.24     0  03:02        1.23
  WS02004402           JUNCTION     0.79     1.22     7.18     0  03:02        1.22
  WS02004403           JUNCTION     0.81     1.20     7.13     0  03:02        1.20
  WS02004404           JUNCTION     0.88     1.25     7.10     0  03:02        1.23
  WS02004406           JUNCTION     0.88     1.16     6.99     0  03:02        1.16
  WS02004409           JUNCTION     0.57     0.96     6.73     0  03:03        0.96
  WS02004410           JUNCTION     0.59     0.95     6.67     0  03:03        0.95
  WS02004411           JUNCTION     0.60     0.93     6.61     0  03:03        0.93
  WS02004412           JUNCTION     0.61     0.90     6.54     0  03:03        0.90
  WS02004413           JUNCTION     0.77     1.02     6.49     0  03:03        1.02
  WS02004405           JUNCTION     0.87     1.22     7.07     0  03:01        1.21
  WS02006109           JUNCTION     0.86     1.66     8.28     0  03:02        1.64
  WS02006110           JUNCTION     0.83     1.45     8.04     0  03:02        1.44
  WS02006111           JUNCTION     0.26     0.89     7.59     0  03:02        0.88
  WS02006112           JUNCTION     0.95     1.56     7.44     0  03:02        1.55
  WS02006113           JUNCTION     0.39     0.92     7.82     0  03:02        0.92
  WS02006115           JUNCTION     0.66     1.22     7.36     0  03:02        1.21
  WS02006116           JUNCTION     0.74     1.26     7.30     0  03:02        1.25
  WS02006230           JUNCTION     0.89     1.88     8.62     0  03:02        1.86
  WS02006231           JUNCTION     0.63     1.52     8.65     0  03:02        1.52
  WS02006232           JUNCTION     0.78     1.63     8.67     0  03:02        1.61
  WS02006234           JUNCTION     0.73     1.53     8.68     0  03:02        1.52
  WS02006235           JUNCTION     0.78     1.54     8.70     0  03:02        1.53
  WS02006238           JUNCTION     0.81     1.56     8.70     0  03:02        1.55
  WS02006240           JUNCTION     0.71     1.40     8.70     0  03:02        1.40
  WS02006242           JUNCTION     0.77     1.43     8.70     0  03:02        1.43
  WS02006243           JUNCTION     0.66     1.28     8.70     0  03:02        1.27
  WS02006245           JUNCTION     0.63     1.21     8.70     0  02:59        1.21
  WS02006247           JUNCTION     0.64     1.19     8.69     0  03:02        1.19
  WS02006248           JUNCTION     0.58     1.10     8.69     0  02:57        1.10
  WS02006249           JUNCTION     0.60     1.09     8.69     0  02:55        1.09
  WS02006239           JUNCTION     0.77     1.49     8.70     0  03:02        1.48
  WS02006251           JUNCTION     0.58     1.25     8.92     0  05:10        1.13
  WS02006252           JUNCTION     0.35     0.80     9.05     0  05:10        0.68
  WS02006253           JUNCTION     0.60     1.30     8.94     0  05:10        1.16
  WS02006256           JUNCTION     1.80     2.35     9.28     0  00:00        2.35
  WS02004138           JUNCTION     0.19     0.20     7.45     0  00:00        0.19
  WS02004139           JUNCTION     0.72     0.79     5.70     0  03:07        0.79
  WS02004407           JUNCTION     0.26     0.40     6.71     0  03:03        0.40
  WS02006228           JUNCTION     0.88     1.83     8.48     0  03:02        1.81
  WS02006229           JUNCTION     0.87     1.90     8.59     0  03:02        1.89
  WS02006280           JUNCTION     0.07     0.30     8.57     0  03:05        0.30
  WS02006284           JUNCTION     0.37     0.65     9.04     0  03:02        0.64
  WS02006287           JUNCTION     0.10     0.39     9.34     0  03:02        0.39
  WSF200               JUNCTION     0.26     0.44     5.67     0  03:04        0.44
  HS02004901           JUNCTION     0.12     0.38    10.20     0  03:01        0.37
  HS02004881           JUNCTION     0.01     0.05     9.08     0  03:01        0.05
  HS02004876           JUNCTION     0.04     0.16     9.19     0  03:01        0.16
  HS02004870           JUNCTION     0.02     0.09     9.38     0  03:01        0.09
  HS02004862           JUNCTION     0.02     0.11     9.49     0  03:01        0.11
  HS02004856           JUNCTION     0.08     0.15     9.58     0  03:01        0.15
  HS02004852           JUNCTION     0.01     0.07     9.59     0  03:02        0.07
  HS02004848           JUNCTION     0.01     0.07     9.67     0  03:01        0.07
  HS02004842           JUNCTION     0.33     0.40     9.67     0  03:01        0.40
  HS02004837           JUNCTION     0.03     0.09     9.67     0  03:01        0.09
  HS02004830           JUNCTION     0.04     0.10     9.57     0  03:01        0.10
  HS02004824           JUNCTION     0.02     0.13     9.53     0  03:02        0.13
  HS02004817           JUNCTION     0.44     0.69     9.54     0  03:02        0.69
  HS02004807           JUNCTION     0.13     0.36     9.53     0  03:02        0.36
  HS02004802           JUNCTION     0.16     0.39     9.52     0  03:02        0.39
  HS02004799           JUNCTION     0.12     0.46     9.68     0  03:01        0.46
  HS02004792           JUNCTION     0.03     0.22     9.74     0  03:01        0.21
  HS02004788           JUNCTION     0.03     0.16    10.05     0  03:02        0.16
  HS02004785           JUNCTION     0.05     0.25    10.15     0  03:02        0.25
  HS02004777           JUNCTION     0.15     0.39    10.19     0  03:01        0.39
  HS02004770           JUNCTION     0.12     0.37    10.20     0  03:01        0.36
  HS02004480           JUNCTION     0.08     0.38     9.62     0  03:01        0.38
  HS02004479           JUNCTION     0.12     0.42     9.62     0  03:01        0.42
  HS02004478           JUNCTION     0.06     0.28     9.50     0  03:01        0.28
  YS02001745           JUNCTION     0.74     0.95     8.47     0  03:01        0.95
  YS02001748           JUNCTION     1.14     1.53     8.60     0  02:32        1.38
  YS02001751           JUNCTION     1.33     1.58     8.46     0  03:00        1.56
  YS02001754           JUNCTION     1.58     1.84     8.45     0  03:00        1.83
  YS02001762           JUNCTION     1.78     2.05     8.45     0  02:56        2.03
  YS02001765           JUNCTION     1.73     2.00     8.45     0  02:56        1.98
  YS02001767           JUNCTION     1.70     1.95     8.44     0  02:56        1.94
  YS02001770           JUNCTION     1.69     1.94     8.43     0  03:00        1.92
  YS02001774           JUNCTION     1.76     1.99     8.41     0  03:01        1.98
  YS02001779           JUNCTION     1.51     1.68     8.37     0  02:42        1.68
  YS02001882           JUNCTION     0.54     1.63     8.35     0  02:50        1.62
  YS02001884           JUNCTION     0.64     1.74     8.35     0  02:58        1.73
  YS02001759           JUNCTION     1.82     2.08     8.45     0  02:56        2.07
  YS02001887           JUNCTION     0.72     1.81     8.35     0  02:59        1.80
  YS02001890           JUNCTION     0.75     1.81     8.32     0  02:50        1.81
  YS02001898           JUNCTION     0.51     1.57     8.30     0  02:50        1.56
  YS02001901           JUNCTION     0.63     1.68     8.29     0  02:50        1.67
  YS02001904           JUNCTION     0.61     1.64     8.27     0  02:50        1.63
  YS02001907           JUNCTION     0.94     1.96     8.25     0  02:50        1.96
  YS02001910           JUNCTION     0.73     1.79     8.29     0  02:51        1.77
  YS02001915           JUNCTION     0.53     1.60     8.32     0  02:51        1.60
  YS02001918           JUNCTION     0.28     1.29     8.36     0  02:51        1.27
  YS02001619           JUNCTION     1.29     1.49     8.42     0  03:00        1.48
  YS02001629           JUNCTION     1.64     1.84     8.39     0  02:53        1.84
  YS02001641           JUNCTION     1.74     1.93     8.37     0  02:44        1.93
  YS02001644           JUNCTION     1.75     1.92     8.35     0  02:40        1.92
  YS02001652           JUNCTION     1.59     2.10     8.69     0  02:46        1.91
  YS02001655           JUNCTION     1.36     2.20     9.05     0  02:25        1.74
  YS02001920           JUNCTION     0.38     1.37     8.38     0  02:51        1.34
  YS02001923           JUNCTION     0.22     1.13     8.39     0  02:51        1.10
  YS02001926           JUNCTION     0.28     0.95     8.40     0  02:51        0.94
  YS02001929           JUNCTION     0.16     0.72     8.41     0  02:52        0.72
  YS02001658           JUNCTION     1.08     2.09     9.23     0  02:46        1.56
  YS02001661           JUNCTION     0.85     2.13     9.54     0  02:46        1.54
  YS02001664           JUNCTION     0.38     0.57     8.50     0  04:17        0.56
  YS02001622           JUNCTION     1.31     1.50     8.41     0  02:56        1.50
  YS02001633           JUNCTION     1.74     1.95     8.40     0  02:53        1.94
  YS02001649           JUNCTION     1.79     2.05     8.44     0  02:45        2.05
  YS02001757           JUNCTION     1.91     2.18     8.44     0  03:00        2.16
  YS02001895           JUNCTION     0.51     1.57     8.32     0  02:50        1.56
  YS02001625           JUNCTION     1.60     1.78     8.38     0  02:37        1.78
  YS02163301           JUNCTION     1.67     1.88     8.40     0  02:58        1.87
  YS02163601           JUNCTION     1.79     1.99     8.39     0  02:54        1.99
  YS02164001           JUNCTION     1.72     1.92     8.37     0  02:57        1.91
  YS02001647           JUNCTION     1.58     1.80     8.41     0  02:47        1.79
  YSB1154              JUNCTION     0.26     0.57     9.62     0  03:01        0.57
  YSB6556              JUNCTION     0.15     0.45     9.62     0  03:02        0.45
  YSB1174              JUNCTION     0.21     0.52     9.62     0  03:01        0.51
  YSB1171              JUNCTION     0.41     0.72     9.62     0  03:01        0.72
  YS02006553           JUNCTION     0.94     2.06     8.34     0  02:50        1.96
  YS02006561           JUNCTION     0.30     1.39     8.05     0  02:50        1.10
  YS02006556           JUNCTION     0.91     2.14     8.45     0  02:50        1.93
  YS02006558           JUNCTION     0.95     2.22     8.48     0  02:50        1.98
  YS02001783           JUNCTION     0.52     1.86     8.00     0  02:50        1.49
  YS02001784           JUNCTION     0.54     1.86     7.93     0  02:50        1.44
  YS02001786           JUNCTION     0.48     1.74     7.77     0  02:50        1.28
  YS02001788           JUNCTION     0.41     1.64     7.61     0  02:50        1.15
  YS02001790           JUNCTION     0.52     1.96     7.60     0  04:46        1.30
  YS02001791           JUNCTION     0.48     2.33     7.80     0  04:45        1.27
  YS02001793           JUNCTION     0.65     2.94     7.77     0  04:43        1.80
  WSC                  OUTFALL      0.36     0.48     1.15     0  03:07        0.48
  JK-storage           STORAGE      2.72     5.80     6.60     0  02:50        5.80
  CC-storage           STORAGE      1.17     1.42     8.42     0  03:13        1.42
  XR-storage           STORAGE      6.78     7.72     5.72     0  02:55        7.72
  
  
  *******************
  Node Inflow Summary
  *******************
  
  -------------------------------------------------------------------------------------------------
                                  Maximum  Maximum                  Lateral       Total        Flow
                                  Lateral    Total  Time of Max      Inflow      Inflow     Balance
                                   Inflow   Inflow   Occurrence      Volume      Volume       Error
  Node                 Type           LPS      LPS  days hr:min    10^6 ltr    10^6 ltr     Percent
  -------------------------------------------------------------------------------------------------
  WS02001211           JUNCTION      7.35   390.30     0  03:16       0.207        9.97       0.414
  WS02001212           JUNCTION      0.00   393.13     0  03:16           0        9.93       0.233
  WS02001213           JUNCTION      0.00   395.61     0  03:16           0         9.9       0.318
  WS02003069           JUNCTION      0.32  1332.22     0  03:05     0.00902        20.8       0.191
  WS02003072           JUNCTION      0.00  1331.90     0  03:05           0        20.7       0.223
  WS02003073           JUNCTION      1.82  1333.84     0  03:06      0.0514        20.7       0.261
  WS02003060           JUNCTION     16.53  1332.09     0  03:04       0.466        20.8       0.179
  WS02003066           JUNCTION      0.00   938.57     0  03:04           0        10.5       0.052
  WS02003059           JUNCTION      0.00   398.47     0  03:15           0        9.88       0.425
  WS02003067           JUNCTION      0.00   938.09     0  03:04           0        10.5       0.104
  WS02004401           JUNCTION      0.00   940.29     0  03:02           0        10.8       0.232
  WS02004402           JUNCTION      0.00   939.79     0  03:02           0        10.8       0.215
  WS02004403           JUNCTION      0.00   939.81     0  03:02           0        10.7       0.193
  WS02004404           JUNCTION      0.16   940.53     0  03:02     0.00457        10.7       0.140
  WS02004406           JUNCTION      0.00   940.07     0  03:02           0        10.7       0.344
  WS02004409           JUNCTION      0.00   939.66     0  03:03           0        10.6       0.200
  WS02004410           JUNCTION      0.00   938.45     0  03:03           0        10.6       0.221
  WS02004411           JUNCTION      0.00   937.82     0  03:03           0        10.6       0.222
  WS02004412           JUNCTION      0.00   937.65     0  03:03           0        10.6       0.233
  WS02004413           JUNCTION      0.00   937.98     0  03:04           0        10.6       0.334
  WS02004405           JUNCTION      0.04   940.52     0  03:02     0.00107        10.7       0.210
  WS02006109           JUNCTION      1.23   915.34     0  03:03      0.0347        10.8       0.194
  WS02006110           JUNCTION      0.00   915.25     0  03:02           0        10.8       0.200
  WS02006111           JUNCTION      0.00   915.65     0  03:03           0        10.8       0.050
  WS02006112           JUNCTION     30.67   939.77     0  03:02      0.0853        10.9       0.310
  WS02006113           JUNCTION      0.00   915.64     0  03:03           0        10.8       0.120
  WS02006115           JUNCTION      0.00   939.40     0  03:02           0        10.8       0.234
  WS02006116           JUNCTION      0.00   939.80     0  03:02           0        10.8       0.202
  WS02006230           JUNCTION     10.28   532.70     0  07:20        0.29        8.43       0.218
  WS02006231           JUNCTION      0.00   522.45     0  07:20           0        8.15       0.157
  WS02006232           JUNCTION      0.00   522.32     0  07:23           0        8.17       0.225
  WS02006234           JUNCTION      0.00   523.20     0  07:23           0        8.18       0.137
  WS02006235           JUNCTION      0.00   523.75     0  07:23           0        8.26       0.145
  WS02006238           JUNCTION      0.00   331.61     0  06:33           0        4.62       0.159
  WS02006240           JUNCTION      0.00   343.21     0  06:32           0        4.59       0.367
  WS02006242           JUNCTION      0.00   351.87     0  06:32           0        4.58       0.407
  WS02006243           JUNCTION      0.00   360.95     0  06:31           0        4.58       0.364
  WS02006245           JUNCTION      0.00   366.34     0  06:31           0        4.59       0.307
  WS02006247           JUNCTION      0.00   370.73     0  06:31           0         4.6       0.218
  WS02006248           JUNCTION      0.00   375.61     0  06:31           0         4.6       0.156
  WS02006249           JUNCTION      0.00   429.95     0  05:10           0        5.08       0.254
  WS02006239           JUNCTION      0.00   334.78     0  06:33           0         4.6       0.257
  WS02006251           JUNCTION      0.08   422.40     0  03:30     0.00217        5.12       0.213
  WS02006252           JUNCTION      0.00   400.00     0  03:30           0        4.62       0.012
  WS02006253           JUNCTION      3.75   143.71     0  03:01      0.0103       0.509       1.071
  WS02006256           JUNCTION      0.00   983.00     0  02:30           0        10.4      -0.003
  WS02004138           JUNCTION      0.00   380.00     0  00:00           0         9.8       0.061
  WS02004139           JUNCTION      0.32   395.85     0  00:00     0.00905        9.81       0.473
  WS02004407           JUNCTION      0.00   940.01     0  03:03           0        10.7       0.089
  WS02006228           JUNCTION      0.00   914.28     0  03:03           0        10.8       0.151
  WS02006229           JUNCTION      0.00   917.64     0  03:01           0        10.8       0.137
  WS02006280           JUNCTION      0.00   680.15     0  03:02           0        2.43       0.012
  WS02006284           JUNCTION      0.10   679.02     0  03:02      0.0027        2.43       0.046
  WS02006287           JUNCTION      0.00   677.65     0  03:02           0        2.43       0.031
  WSF200               JUNCTION      0.00   938.72     0  03:04           0        10.5       0.054
  HS02004901           JUNCTION     37.63    37.63     0  03:01       0.103       0.103       1.740
  HS02004881           JUNCTION     14.26   140.53     0  03:01      0.0422       0.463       0.103
  HS02004876           JUNCTION     25.66   127.64     0  03:01      0.0814       0.422       0.131
  HS02004870           JUNCTION     26.26   103.58     0  03:01      0.0799        0.34       0.034
  HS02004862           JUNCTION     25.49    79.37     0  03:01      0.0888       0.261       0.067
  HS02004856           JUNCTION     19.64    55.40     0  03:01      0.0601       0.173       0.844
  HS02004852           JUNCTION      0.00    37.84     0  03:01           0       0.113       0.053
  HS02004848           JUNCTION     55.75    55.75     0  03:01       0.197       0.197       0.027
  HS02004842           JUNCTION      0.00    16.84     0  03:01           0       0.097      15.491
  HS02004837           JUNCTION     50.35    65.70     0  03:01       0.318       0.402       0.204
  HS02004830           JUNCTION      0.15    64.79     0  03:01     0.00423       0.392       0.316
  HS02004824           JUNCTION     65.57   128.43     0  03:01       0.251       0.642       0.085
  HS02004817           JUNCTION      0.60   124.47     0  03:01      0.0169       0.658       2.600
  HS02004807           JUNCTION     48.45   165.80     0  03:01       0.147       0.788       0.554
  HS02004802           JUNCTION      0.00   165.31     0  03:04           0       0.785       0.507
  HS02004799           JUNCTION     38.67   446.04     0  03:01       0.119        1.42       0.191
  HS02004792           JUNCTION    184.82   411.75     0  03:01        0.54         1.3       0.033
  HS02004788           JUNCTION     58.68   233.43     0  03:02       0.219       0.758       0.053
  HS02004785           JUNCTION      0.15   182.21     0  03:01     0.00423        0.54       0.093
  HS02004777           JUNCTION      0.03   185.02     0  03:01    0.000846       0.541       0.971
  HS02004770           JUNCTION    154.22   188.93     0  03:01       0.441       0.542       0.577
  HS02004480           JUNCTION      0.00   517.22     0  03:01           0        1.66       0.070
  HS02004479           JUNCTION      0.00    75.45     0  03:02           0       0.258       0.286
  HS02004478           JUNCTION      0.00   677.07     0  03:02           0        2.43       0.011
  YS02001745           JUNCTION    438.14   438.14     0  03:01        3.01        3.02       0.364
  YS02001748           JUNCTION      0.04   576.66     0  02:32     0.00127        3.01       0.709
  YS02001751           JUNCTION      0.01   443.72     0  03:01     0.00031        2.98       0.801
  YS02001754           JUNCTION      0.26   443.90     0  03:01     0.00733        2.96       0.843
  YS02001762           JUNCTION      0.00   314.44     0  02:42           0        2.03       1.056
  YS02001765           JUNCTION      0.00   314.30     0  02:42           0        2.03       1.220
  YS02001767           JUNCTION      0.54   314.11     0  02:42      0.0151        2.05       1.779
  YS02001770           JUNCTION    552.50   674.79     0  03:02        3.37        3.76       0.851
  YS02001774           JUNCTION      0.00   675.42     0  03:01           0        2.09       1.215
  YS02001779           JUNCTION      0.01   675.06     0  03:02    0.000141        2.06       0.747
  YS02001882           JUNCTION      0.00    13.67     0  02:24           0      0.0305       8.262
  YS02001884           JUNCTION      0.00    22.37     0  02:24           0      0.0666      10.218
  YS02001759           JUNCTION    536.49   619.30     0  02:42        3.11        4.71       0.488
  YS02001887           JUNCTION    679.97   679.97     0  03:01        3.56        3.59       0.239
  YS02001890           JUNCTION      0.00   680.09     0  03:01           0        3.55       0.269
  YS02001898           JUNCTION      0.00   517.79     0  03:06           0        3.45       0.090
  YS02001901           JUNCTION      0.00   518.01     0  03:06           0        3.45       0.216
  YS02001904           JUNCTION      0.00   517.97     0  03:06           0        3.44       0.191
  YS02001907           JUNCTION      0.00  1111.33     0  03:01           0        7.77       0.310
  YS02001910           JUNCTION      0.00   595.08     0  03:01           0        4.34       0.267
  YS02001915           JUNCTION    389.26   594.57     0  03:01        2.52        4.35       0.150
  YS02001918           JUNCTION      0.00   266.27     0  02:52           0        1.84       0.111
  YS02001619           JUNCTION    380.66   380.66     0  03:01        2.51        2.51       0.489
  YS02001629           JUNCTION      0.00   194.89     0  02:39           0        1.59       1.850
  YS02001641           JUNCTION      0.00   411.84     0  02:39           0        4.45       0.480
  YS02001644           JUNCTION    416.76  1528.41     0  03:01         2.9        10.5       0.248
  YS02001652           JUNCTION      0.00   497.59     0  03:01           0        2.63       0.900
  YS02001655           JUNCTION      0.15   498.50     0  03:01     0.00434        2.65       0.926
  YS02001920           JUNCTION      2.87   265.64     0  02:52      0.0809        1.84       0.171
  YS02001923           JUNCTION      0.04   237.57     0  02:52     0.00106        1.76       0.051
  YS02001926           JUNCTION      0.05   204.21     0  03:02     0.00147        1.75       0.198
  YS02001929           JUNCTION    189.18   189.18     0  03:01        1.75        1.75       0.035
  YS02001658           JUNCTION      0.00   605.86     0  02:29           0        2.69       0.782
  YS02001661           JUNCTION      0.00   650.43     0  02:46           0        3.13      -0.045
  YS02001664           JUNCTION    492.63   492.63     0  03:01        2.67        3.11       0.189
  YS02001622           JUNCTION      0.00   380.78     0  03:01           0         2.5       1.296
  YS02001633           JUNCTION    423.29   423.29     0  03:01        2.99        4.52       0.718
  YS02001649           JUNCTION      0.00   869.34     0  02:40           0        5.92       0.630
  YS02001757           JUNCTION      0.00  1676.72     0  02:41           0        9.91       0.933
  YS02001895           JUNCTION      0.00   518.21     0  03:06           0        3.45       0.156
  YS02001625           JUNCTION      0.00   407.00     0  03:01           0        2.47       1.593
  YS02163301           JUNCTION      0.00   204.85     0  02:32           0        1.57       1.580
  YS02163601           JUNCTION      0.11   412.58     0  02:40      0.0031        4.48       0.681
  YS02164001           JUNCTION      0.00   412.37     0  02:40           0        4.46       0.463
  YS02001647           JUNCTION      0.00   729.66     0  03:10           0        5.03       0.566
  YSB1154              JUNCTION     44.76    44.76     0  03:01       0.144       0.144       1.016
  YSB6556              JUNCTION      0.00    43.28     0  03:01           0       0.145       0.869
  YSB1174              JUNCTION     38.10    38.10     0  03:01       0.106       0.107       1.221
  YSB1171              JUNCTION      0.00    76.92     0  03:01           0       0.257       2.525
  YS02006553           JUNCTION      0.00   708.24     0  03:46           0        6.75       0.231
  YS02006561           JUNCTION      0.00  1117.04     0  02:50           0        9.97       0.009
  YS02006556           JUNCTION      0.00   708.28     0  03:46           0        6.75       0.173
  YS02006558           JUNCTION    587.14  1116.96     0  02:50        3.28          10       0.052
  YS02001783           JUNCTION      0.00  1111.28     0  02:50           0        9.97       0.026
  YS02001784           JUNCTION      1.06  1111.51     0  02:50      0.0299          10       0.038
  YS02001786           JUNCTION      0.06  1110.94     0  02:50     0.00159          10       0.038
  YS02001788           JUNCTION      0.07  1110.90     0  02:50       0.002          10       0.021
  YS02001790           JUNCTION      0.15  1102.69     0  02:50     0.00437          10       0.020
  YS02001791           JUNCTION      0.00  1170.77     0  02:48           0          10       0.009
  YS02001793           JUNCTION      0.00  1088.65     0  02:48           0          10      -0.017
  WSC                  OUTFALL       0.00  1334.01     0  03:07           0        20.7       0.000
  JK-storage           STORAGE       0.00  1087.59     0  02:25           0        10.1     -11.006
  CC-storage           STORAGE       0.00  1677.29     0  02:41           0        8.34       0.771
  XR-storage           STORAGE    1024.87  1024.87     0  03:01        12.7        13.3      -0.002
  
  
  **********************
  Node Surcharge Summary
  **********************
  
  Surcharging occurs when water rises above the top of the highest conduit.
  ---------------------------------------------------------------------
                                               Max. Height   Min. Depth
                                   Hours       Above Crown    Below Rim
  Node                 Type      Surcharged         Meters       Meters
  ---------------------------------------------------------------------
  WS02004401           JUNCTION        0.53          0.237        1.423
  WS02004402           JUNCTION        0.58          0.224        1.516
  WS02004403           JUNCTION        0.60          0.200        1.830
  WS02004404           JUNCTION        1.12          0.247        2.533
  WS02004406           JUNCTION        0.87          0.165        2.285
  WS02004413           JUNCTION        0.18          0.023        2.177
  WS02004405           JUNCTION        0.99          0.216        2.584
  WS02006109           JUNCTION        4.56          0.837        0.983
  WS02006110           JUNCTION        2.62          0.542        1.308
  WS02006111           JUNCTION        0.13          0.075        1.795
  WS02006112           JUNCTION        3.18          0.557        1.123
  WS02006113           JUNCTION        0.15          0.124        1.806
  WS02006115           JUNCTION        0.37          0.207        2.043
  WS02006116           JUNCTION        0.39          0.202        2.088
  WS02006230           JUNCTION        2.28          0.797        0.773
  WS02006231           JUNCTION        2.83          0.815        0.715
  WS02006232           JUNCTION        4.18          0.928        0.552
  WS02006234           JUNCTION        3.76          0.807        0.433
  WS02006235           JUNCTION        3.94          0.828        0.462
  WS02006238           JUNCTION        3.98          0.839        0.591
  WS02006240           JUNCTION        3.50          0.692        0.698
  WS02006242           JUNCTION        3.63          0.700        0.120
  WS02006243           JUNCTION        2.83          0.569        0.201
  WS02006245           JUNCTION        2.66          0.502        0.348
  WS02006247           JUNCTION        2.66          0.485        0.275
  WS02006248           JUNCTION        2.42          0.380        0.000
  WS02006249           JUNCTION        2.50          0.390        0.000
  WS02006239           JUNCTION        3.72          0.749        0.541
  WS02006251           JUNCTION        1.62          0.218        0.962
  WS02006252           JUNCTION        2.54          0.404        0.696
  WS02006253           JUNCTION        1.67          0.255        2.225
  WS02006256           JUNCTION        6.84          2.050        0.000
  WS02006228           JUNCTION        4.54          0.999        1.201
  YS02001748           JUNCTION        5.23          0.448        0.742
  YS02001751           JUNCTION        5.36          0.577        0.623
  YS02001754           JUNCTION        5.57          0.790        0.360
  YS02001762           JUNCTION        5.75          1.049        0.101
  YS02001765           JUNCTION        5.72          0.996        0.104
  YS02001767           JUNCTION        5.69          0.947        0.083
  YS02001770           JUNCTION        5.67          0.907        0.013
  YS02001774           JUNCTION        5.74          0.985        0.065
  YS02001779           JUNCTION        5.56          0.680        0.000
  YS02001882           JUNCTION        1.06          0.631        0.199
  YS02001884           JUNCTION        1.09          0.676        0.194
  YS02001759           JUNCTION        5.78          1.085        0.125
  YS02001887           JUNCTION        1.17          0.763        0.187
  YS02001890           JUNCTION        1.19          0.760        0.000
  YS02001898           JUNCTION        1.01          0.536        0.204
  YS02001901           JUNCTION        1.12          0.678        0.192
  YS02001904           JUNCTION        1.10          0.637        0.213
  YS02001907           JUNCTION        1.86          0.950        0.000
  YS02001910           JUNCTION        1.24          0.787        0.313
  YS02001915           JUNCTION        1.04          0.604        0.396
  YS02001918           JUNCTION        0.85          0.290        0.520
  YS02001619           JUNCTION        5.37          0.488        0.122
  YS02001629           JUNCTION        5.39          0.465        0.005
  YS02001641           JUNCTION        5.73          0.935        0.165
  YS02001644           JUNCTION        5.73          0.920        0.000
  YS02001652           JUNCTION        5.61          1.067        0.063
  YS02001655           JUNCTION        5.40          1.200        0.000
  YS02001920           JUNCTION        0.88          0.374        0.766
  YS02001658           JUNCTION        5.25          1.088        0.212
  YS02001661           JUNCTION        0.17          1.063        0.327
  YS02001622           JUNCTION        5.41          0.504        0.116
  YS02001633           JUNCTION        5.71          0.926        0.134
  YS02001649           JUNCTION        5.75          1.050        0.000
  YS02001757           JUNCTION        5.86          1.176        0.034
  YS02001895           JUNCTION        1.03          0.568        0.182
  YS02001625           JUNCTION        5.64          0.780        0.000
  YS02163301           JUNCTION        5.69          0.882        0.148
  YS02163601           JUNCTION        5.75          0.989        0.091
  YS02164001           JUNCTION        5.72          0.916        0.184
  YS02001647           JUNCTION        5.62          0.804        0.096
  YS02006553           JUNCTION        1.94          1.056        0.134
  YS02006561           JUNCTION        0.86          0.592        0.558
  YS02006556           JUNCTION        1.47          1.099        0.251
  YS02006558           JUNCTION        1.43          1.117        0.283
  YS02001783           JUNCTION        1.18          1.058        0.542
  YS02001784           JUNCTION        1.14          1.058        0.432
  YS02001786           JUNCTION        0.98          0.939        0.491
  YS02001788           JUNCTION        0.89          0.837        0.643
  YS02001790           JUNCTION        1.68          1.157        0.000
  YS02001791           JUNCTION        1.77          1.529        0.391
  YS02001793           JUNCTION        2.03          1.939        0.661
  
  
  *********************
  Node Flooding Summary
  *********************
  
  Flooding refers to all water that overflows a node, whether it ponds or not.
  --------------------------------------------------------------------------
                                                             Total   Maximum
                                 Maximum   Time of Max       Flood    Ponded
                        Hours       Rate    Occurrence      Volume     Depth
  Node                 Flooded       LPS   days hr:min    10^6 ltr    Meters
  --------------------------------------------------------------------------
  WS02006248              0.07     14.83      0  03:03       0.002     0.000
  WS02006249              1.55    258.68      0  03:02       0.464     0.000
  WS02006256              4.45    810.32      0  03:10       6.687     0.000
  YS02001779              2.72    674.98      0  03:02       2.046     0.000
  YS02001890              0.34    163.80      0  03:01       0.085     0.000
  YS02001907              0.72    727.16      0  03:01       1.008     0.000
  YS02001644              4.53   1527.52      0  03:01       8.584     0.000
  YS02001655              0.01    225.42      0  02:25       0.000     0.000
  YS02001649              0.03     32.73      0  02:46       0.001     0.000
  YS02001625              1.40    406.78      0  03:01       0.855     0.000
  YS02001790              0.01    206.91      0  04:46       0.000     0.000
  JK-storage              0.84    726.32      0  02:50       1.017     0.000
  XR-storage              3.52    644.77      0  03:01       2.729     0.000
  
  
  **********************
  Storage Volume Summary
  **********************
  
  --------------------------------------------------------------------------------------------------
                         Average     Avg  Evap Exfil       Maximum     Max    Time of Max    Maximum
                          Volume    Pcnt  Pcnt  Pcnt        Volume    Pcnt     Occurrence    Outflow
  Storage Unit           1000 m3    Full  Loss  Loss       1000 m3    Full    days hr:min        LPS
  --------------------------------------------------------------------------------------------------
  JK-storage               0.136      47     0     0         0.291     100       0  02:50     983.00
  CC-storage               3.263      21     0     0         3.966      25       0  03:13     400.00
  XR-storage               0.813      88     0     0         0.926     100       0  02:55     380.00
  
  
  ***********************
  Outfall Loading Summary
  ***********************
  
  ---------------------------------------------------------------------------------------------------------------------------------
                         Flow       Avg       Max       Total         Total         Total         Total         Total         Total
                         Freq      Flow      Flow      Volume           COD            SS            TN            TP         NH4-N
  Outfall Node           Pcnt       LPS       LPS    10^6 ltr            kg            kg            kg            kg            kg
  ---------------------------------------------------------------------------------------------------------------------------------
  WSC                   99.98    824.48   1334.01      20.675      2448.495      4245.983       149.480        17.437        90.064
  ---------------------------------------------------------------------------------------------------------------------------------
  System                99.98    824.48   1334.01      20.675      2448.495      4245.983       149.480        17.437        90.064
  
  
  ********************
  Link Flow Summary
  ********************
  
  -----------------------------------------------------------------------------
                                 Maximum  Time of Max   Maximum    Max/    Max/
                                  |Flow|   Occurrence   |Veloc|    Full    Full
  Link                 Type          LPS  days hr:min     m/sec    Flow   Depth
  -----------------------------------------------------------------------------
  WS02003066WSF200     CONDUIT    938.72     0  03:04      3.00    0.16    0.32
  WS02006287WS02006284 CONDUIT    678.92     0  03:02      2.38    0.31    0.39
  WS02006284WS02006280 CONDUIT    680.15     0  03:02      2.62    0.28    0.37
  WS02006280WS02006229 CONDUIT    680.21     0  03:02      3.86    0.15    0.50
  WS02006229WS02006228 CONDUIT    914.28     0  03:03      1.82    3.03    1.00
  WS02006256WS02006235 CONDUIT    288.92     0  00:00      4.23    3.06    1.00
  WS02006253WS02006251 CONDUIT    144.01     0  03:01      0.56    0.43    1.00
  WS02006252WS02006251 CONDUIT    404.52     0  05:10      3.22    1.48    1.00
  WS02006251WS02006249 CONDUIT    429.95     0  05:10      1.13    1.24    1.00
  WS02006249WS02006248 CONDUIT    375.61     0  06:31      1.19    2.06    1.00
  WS02006248WS02006247 CONDUIT    370.73     0  06:31      1.16    0.81    1.00
  WS02006247WS02006245 CONDUIT    366.34     0  06:31      1.14    2.90    1.00
  WS02006245WS02006243 CONDUIT    360.95     0  06:31      1.18    1.07    1.00
  WS02006243WS02006242 CONDUIT    351.87     0  06:32      1.07    0.75    1.00
  WS02006242WS02006240 CONDUIT    343.21     0  06:32      1.00    1.36    1.00
  WS02006240WS02006239 CONDUIT    334.78     0  06:33      1.04    1.05    1.00
  WS02006239WS02006238 CONDUIT    331.61     0  06:33      0.95    1.06    1.00
  WS02006238WS02006235 CONDUIT    330.17     0  06:33      1.45    0.74    1.00
  WS02006235WS02006234 CONDUIT    523.20     0  07:23      1.36    5.52    1.00
  WS02006234WS02006232 CONDUIT    522.32     0  07:23      1.39    1.06    1.00
  WS02006232WS02006231 CONDUIT    522.45     0  07:20      1.36    1.09    1.00
  WS02006231WS02006230 CONDUIT    522.42     0  07:20      1.36    7.92    1.00
  WS02006230WS02006229 CONDUIT    534.33     0  05:10      1.39   11.89    1.00
  WS02006228WS02006109 CONDUIT    914.11     0  03:03      1.82    3.99    1.00
  WS02006116WS02004401 CONDUIT    940.29     0  03:02      1.20    1.30    1.00
  WS02006115WS02006116 CONDUIT    939.80     0  03:02      1.20    1.21    1.00
  WS02006113WS02006111 CONDUIT    915.65     0  03:03      2.60    1.10    1.00
  WS02006112WS02006115 CONDUIT    939.40     0  03:02      1.20    0.55    1.00
  WS02006111WS02006112 CONDUIT    916.17     0  03:03      1.82    0.44    1.00
  WS02006110WS02006113 CONDUIT    915.64     0  03:03      1.82    0.83    1.00
  WS02006109WS02006110 CONDUIT    915.25     0  03:02      1.82    1.76    1.00
  WS02004411WS02004412 CONDUIT    937.65     0  03:03      1.24    1.33    0.92
  WS02004401WS02004402 CONDUIT    939.79     0  03:02      1.20    1.13    1.00
  WS02004413WS02003067 CONDUIT    938.09     0  03:04      1.55    0.40    0.72
  WS02004412WS02004413 CONDUIT    937.98     0  03:04      1.22    0.63    0.95
  WS02004410WS02004411 CONDUIT    937.82     0  03:03      1.23    1.28    0.94
  WS02004409WS02004410 CONDUIT    938.45     0  03:03      1.22    1.21    0.95
  WS02004407WS02004409 CONDUIT    939.66     0  03:03      1.67    0.33    0.68
  WS02004406WS02004407 CONDUIT    940.01     0  03:03      1.60    0.42    0.70
  WS02004405WS02004406 CONDUIT    940.07     0  03:02      1.20    1.85    1.00
  WS02004404WS02004405 CONDUIT    940.48     0  03:02      1.20    9.21    1.00
  WS02004403WS02004404 CONDUIT    940.37     0  03:02      1.20    0.68    1.00
  WS02004402WS02004403 CONDUIT    939.81     0  03:02      1.20    1.35    1.00
  WS02004139WS02001211 CONDUIT    382.95     0  03:16      0.90    0.48    0.64
  WS02004138WS02004139 CONDUIT    395.52     0  00:00      3.64    0.08    0.47
  WS02003067WS02003066 CONDUIT    938.57     0  03:04      1.65    0.30    0.50
  WS02001213WS02003059 CONDUIT    398.47     0  03:15      0.89    0.66    0.87
  WS02001212WS02001213 CONDUIT    395.61     0  03:16      1.32    0.61    0.56
  WS02001211WS02001212 CONDUIT    393.13     0  03:16      0.78    0.30    0.71
  WS02003072WS02003073 CONDUIT   1332.02     0  03:06      1.96    2.88    0.58
  WS02003069WS02003072 CONDUIT   1331.90     0  03:05      1.82    0.64    0.62
  WS02003060WS02003069 CONDUIT   1331.90     0  03:05      2.03    0.52    0.56
  WS02003059WS02003060 CONDUIT    401.94     0  03:15      0.95    0.26    0.77
  HS02004901HS02004770 CONDUIT     37.23     0  03:01      0.10    0.14    0.53
  HS02004876HS02004881 CONDUIT    127.64     0  03:01      1.21    1.36    0.15
  HS02004870HS02004876 CONDUIT    103.10     0  03:01      0.82    0.07    0.18
  HS02004842HS02004848 CONDUIT     16.84     0  03:01      0.07    0.01    0.33
  HS02004837HS02004842 CONDUIT     17.91     0  03:03      0.42    0.01    0.35
  HS02004830HS02004837 CONDUIT     64.64     0  03:01      0.67    0.06    0.14
  HS02004824HS02004830 CONDUIT     64.12     0  03:02      0.62    0.08    0.16
  HS02004817HS02004824 CONDUIT    123.87     0  03:01      0.31    0.06    0.58
  HS02004770HS02004777 CONDUIT    184.99     0  03:01      0.49    0.34    0.54
  HS02004799HS02004480 CONDUIT    444.35     0  03:01      1.07    0.56    0.60
  HS02004792HS02004799 CONDUIT    408.45     0  03:01      1.20    0.25    0.49
  HS02004788HS02004792 CONDUIT    232.94     0  03:02      1.28    0.15    0.26
  HS02004785HS02004788 CONDUIT    181.78     0  03:02      0.91    1.37    0.29
  HS02004777HS02004785 CONDUIT    182.06     0  03:01      0.57    0.22    0.45
  HS02004480HS02004478 CONDUIT    517.35     0  03:01      1.55    2.18    0.48
  HS02004479HS02004480 CONDUIT     77.31     0  03:02      0.30    0.07    0.57
  HS02004862HS02004870 CONDUIT     79.03     0  03:01      0.80    0.09    0.14
  HS02004848HS02004852 CONDUIT     37.84     0  03:01      0.53    0.04    0.10
  HS02004856HS02004862 CONDUIT     54.77     0  03:01      0.59    0.05    0.13
  HS02004852HS02004856 CONDUIT     37.76     0  03:02      0.34    0.04    0.16
  HS02004802HS02004478 CONDUIT    170.16     0  03:04      0.54    0.15    0.48
  HS02004478WS02006287 CONDUIT    677.65     0  03:02      2.11    0.19    0.36
  HS02004817HS02004807 CONDUIT    128.12     0  03:04      0.25    0.08    0.75
  HS02004807HS02004802 CONDUIT    165.31     0  03:04      0.46    0.32    0.53
  YS02001759YS02001757 CONDUIT    619.57     0  02:42      0.79    0.44    1.00
  YS02001762YS02001759 CONDUIT    314.85     0  02:42      0.40    0.36    1.00
  YS02001765YS02001762 CONDUIT    314.44     0  02:42      0.40    0.29    1.00
  YS02001770YS02001767 CONDUIT    313.57     0  02:42      0.40    1.24    1.00
  YS02001774YS02001770 CONDUIT    675.42     0  03:01      0.86    0.43    1.00
  YS02001779YS02001774 CONDUIT    675.06     0  03:02      0.86    0.34    1.00
  YS02001649YS02001757 CONDUIT    869.09     0  02:40      1.11    0.53    1.00
  YS02001767YS02001765 CONDUIT    314.30     0  02:42      0.40    0.40    1.00
  YS02006561YS02001783 CONDUIT   1111.28     0  02:50      2.26    0.58    1.00
  YS02001783YS02001784 CONDUIT   1110.45     0  02:50      2.21    1.53    1.00
  YS02001784YS02001785 CONDUIT   1110.88     0  02:50      2.21    2.59    1.00
  YS02001788YS02001790 CONDUIT   1102.54     0  02:50      2.58    0.81    1.00
  YS02001790YS02001791 CONDUIT   1170.77     0  02:48      3.34    1.27    1.00
  YS02001791YS02001793 CONDUIT   1088.65     0  02:48      6.43    0.47    1.00
  YS02001910YS02001907 CONDUIT    594.49     0  03:01      0.76    0.34    1.00
  YS02001786YS02001788 CONDUIT   1110.83     0  02:50      2.37    2.14    1.00
  YS02001915YS02001910 CONDUIT    595.08     0  03:01      0.76    0.30    1.00
  YS02001918YS02001915 CONDUIT    266.02     0  02:52      0.44    0.15    1.00
  YS02001923YS02001920 CONDUIT    262.77     0  02:52      0.75    0.12    1.00
  YS02001926YS02001923 CONDUIT    237.53     0  02:52      0.86    0.34    0.93
  YS02001929YS02001926 CONDUIT    204.16     0  03:02      0.92    0.10    0.83
  YS02001920YS02001918 CONDUIT    266.27     0  02:52      0.72    0.26    1.00
  YS02001629YS02163301 CONDUIT    204.85     0  02:32      0.26    0.25    1.00
  YS02001619YS02001622 CONDUIT    380.78     0  03:01      0.59    0.56    1.00
  YS02001622YS02001625 CONDUIT    380.94     0  03:01      0.49    0.20    1.00
  YS02001625YS02001629 CONDUIT    194.89     0  02:39      0.25    0.09    1.00
  YS02163301YS02001633 CONDUIT    205.61     0  02:32      0.26    0.19    1.00
  YS02163601YS02164001 CONDUIT    412.37     0  02:40      0.53    0.37    1.00
  YS02164001YS02001641 CONDUIT    411.84     0  02:39      0.52    0.56    1.00
  YS02001641YS02001644 CONDUIT    411.97     0  02:39      0.52    1.33    1.00
  YS02001647YS02001649 CONDUIT    729.66     0  03:10      0.93    0.39    1.00
  YS02006553YS02006556 CONDUIT    708.28     0  03:46      0.90    0.61    1.00
  YS02006556YS02006558 CONDUIT    708.35     0  03:46      0.90    0.56    1.00
  YSB6556YSB1171       CONDUIT     42.83     0  03:02      0.13    0.04    0.82
  YS02001907YS02006553 CONDUIT    708.24     0  03:46      0.79    0.83    1.00
  YS02006558YS02006561 CONDUIT   1117.04     0  02:50      3.95    2.47    1.00
  YS02001633YS02163601 CONDUIT    412.47     0  02:40      0.53    0.43    1.00
  YS02001644YS02001647 CONDUIT    729.72     0  03:10      0.93    0.43    1.00
  YS02001745YS02001748 CONDUIT    576.61     0  02:32      1.45    0.22    0.98
  YS02001748YS02001751 CONDUIT    443.71     0  03:01      1.03    0.22    1.00
  YS02001751YS02001754 CONDUIT    443.64     0  03:01      0.88    0.21    1.00
  YS02001754YS02001757 CONDUIT    444.35     0  03:01      0.57    0.18    1.00
  YS02001882YS02001884 CONDUIT     16.74     0  04:15      0.12    0.02    1.00
  YS02001884YS02001887 CONDUIT     22.37     0  02:24      0.08    0.03    1.00
  YS02001890YS02001895 CONDUIT    518.21     0  03:06      0.66    0.24    1.00
  YS02001895YS02001898 CONDUIT    517.79     0  03:06      0.66    0.90    1.00
  YS02001898YS02001901 CONDUIT    518.01     0  03:06      0.66    0.33    1.00
  YS02001901YS02001904 CONDUIT    517.97     0  03:06      0.66    0.80    1.00
  YS02001904YS02001907 CONDUIT    518.55     0  02:57      0.66    0.18    1.00
  YS02001887YS02001890 CONDUIT    680.09     0  03:01      0.87    1.16    1.00
  YS02001652YS02001649 CONDUIT    497.61     0  03:01      0.63    0.25    1.00
  YS02001655YS02001652 CONDUIT    497.59     0  03:01      0.94    0.24    1.00
  YS02001658YS02001655 CONDUIT    498.35     0  03:01      1.18    0.21    1.00
  YS02001661YS02001658 CONDUIT    605.86     0  02:29      1.52    0.24    1.00
  YS02001664YS02001661 CONDUIT    650.43     0  02:46      1.42    0.20    0.77
  YSB1154YSB6556       CONDUIT     43.28     0  03:01      0.18    0.08    0.73
  YSB1174YSB1171       CONDUIT     36.65     0  03:01      0.11    0.06    0.85
  YSB1171HS02004479    CONDUIT     75.45     0  03:02      0.54    0.05    0.68
  HS02004881HS02006253 CONDUIT    140.48     0  03:01      2.15    0.03    0.54
  YS02001793JiankangQianchi CONDUIT   1087.59     0  02:25     16.65    0.09    1.00
  YS02001757CaochengTiaoxuchi CONDUIT   1677.29     0  02:41      2.17    0.74    1.00
  WSF200WS02003060     CONDUIT    939.00     0  03:04      1.93    0.21    0.45
  1                    CONDUIT   1334.01     0  03:07      3.59    0.46    0.48
  CC-Pump-1            PUMP       200.00     0  03:00              1.00
  CC-Pump-2            PUMP       200.00     0  03:30              1.00
  JK-Pump-1            PUMP       300.00     0  00:00              1.00
  JK-Pump-2            PUMP       683.00     0  02:30              1.00
  XR-Pump-1            PUMP        95.00     0  00:00              1.00
  XR-Pump-2            PUMP        95.00     0  00:00              1.00
  XR-Pump-3            PUMP        95.00     0  00:00              1.00
  XR-Pump-4            PUMP        95.00     0  00:00              1.00
  
  
  ***************************
  Flow Classification Summary
  ***************************
  
  -------------------------------------------------------------------------------------
                      Adjusted    ---------- Fraction of Time in Flow Class ---------- 
                       /Actual         Up    Down  Sub   Sup   Up    Down  Norm  Inlet 
  Conduit               Length    Dry  Dry   Dry   Crit  Crit  Crit  Crit  Ltd   Ctrl  
  -------------------------------------------------------------------------------------
  WS02003066WSF200        1.00   0.01  0.02  0.00  0.00  0.97  0.00  0.00  0.48  0.00
  WS02006287WS02006284    1.00   0.03  0.01  0.00  0.65  0.31  0.00  0.00  0.65  0.00
  WS02006284WS02006280    1.00   0.04  0.00  0.00  0.00  0.00  0.00  0.96  0.00  0.00
  WS02006280WS02006229    1.00   0.04  0.00  0.00  0.01  0.02  0.00  0.94  0.01  0.00
  WS02006229WS02006228    1.00   0.00  0.00  0.00  1.00  0.00  0.00  0.00  0.00  0.00
  WS02006256WS02006235    1.00   0.00  0.00  0.00  1.00  0.00  0.00  0.00  0.00  0.00
  WS02006253WS02006251    1.00   0.02  0.01  0.00  0.96  0.00  0.00  0.00  0.00  0.00
  WS02006252WS02006251    1.00   0.16  0.00  0.00  0.18  0.00  0.65  0.00  0.00  0.00
  WS02006251WS02006249    1.00   0.00  0.00  0.00  1.00  0.00  0.00  0.00  0.23  0.00
  WS02006249WS02006248    1.00   0.00  0.01  0.00  0.92  0.00  0.07  0.00  0.00  0.00
  WS02006248WS02006247    1.00   0.01  0.00  0.00  0.99  0.00  0.00  0.00  0.14  0.00
  WS02006247WS02006245    1.00   0.00  0.00  0.00  1.00  0.00  0.00  0.00  0.00  0.00
  WS02006245WS02006243    1.00   0.00  0.00  0.00  0.96  0.00  0.00  0.04  0.00  0.00
  WS02006243WS02006242    1.00   0.00  0.00  0.00  1.00  0.00  0.00  0.00  0.21  0.00
  WS02006242WS02006240    1.00   0.00  0.00  0.00  1.00  0.00  0.00  0.00  0.00  0.00
  WS02006240WS02006239    1.00   0.00  0.00  0.00  0.96  0.00  0.00  0.04  0.01  0.00
  WS02006239WS02006238    1.00   0.00  0.00  0.00  1.00  0.00  0.00  0.00  0.13  0.00
  WS02006238WS02006235    1.00   0.00  0.00  0.00  1.00  0.00  0.00  0.00  0.00  0.00
  WS02006235WS02006234    1.00   0.00  0.00  0.00  0.96  0.00  0.04  0.00  0.00  0.00
  WS02006234WS02006232    1.00   0.00  0.00  0.00  1.00  0.00  0.00  0.00  0.09  0.00
  WS02006232WS02006231    1.00   0.00  0.00  0.00  1.00  0.00  0.00  0.00  0.00  0.00
  WS02006231WS02006230    1.00   0.00  0.00  0.00  0.75  0.00  0.25  0.00  0.00  0.00
  WS02006230WS02006229    1.00   0.00  0.00  0.00  1.00  0.00  0.00  0.00  0.00  0.00
  WS02006228WS02006109    1.00   0.00  0.00  0.00  1.00  0.00  0.00  0.00  0.00  0.00
  WS02006116WS02004401    1.00   0.01  0.00  0.00  0.99  0.00  0.00  0.00  0.00  0.00
  WS02006115WS02006116    1.00   0.01  0.00  0.00  0.99  0.00  0.00  0.00  0.00  0.00
  WS02006113WS02006111    1.00   0.01  0.00  0.00  0.04  0.96  0.00  0.00  0.14  0.00
  WS02006112WS02006115    1.00   0.01  0.00  0.00  0.99  0.00  0.00  0.00  0.00  0.00
  WS02006111WS02006112    1.00   0.01  0.00  0.00  0.99  0.00  0.00  0.00  0.85  0.00
  WS02006110WS02006113    1.00   0.00  0.00  0.00  0.99  0.00  0.00  0.00  0.00  0.00
  WS02006109WS02006110    1.00   0.00  0.00  0.00  0.99  0.00  0.00  0.00  0.00  0.00
  WS02004411WS02004412    1.00   0.02  0.00  0.00  0.98  0.00  0.00  0.00  0.00  0.00
  WS02004401WS02004402    1.00   0.01  0.00  0.00  0.99  0.00  0.00  0.00  0.00  0.00
  WS02004413WS02003067    1.00   0.02  0.01  0.00  0.00  0.00  0.98  0.00  0.00  0.00
  WS02004412WS02004413    1.00   0.02  0.00  0.00  0.98  0.00  0.00  0.00  0.01  0.00
  WS02004410WS02004411    1.00   0.02  0.00  0.00  0.98  0.00  0.00  0.00  0.00  0.00
  WS02004409WS02004410    1.00   0.01  0.00  0.00  0.99  0.00  0.00  0.00  0.02  0.00
  WS02004407WS02004409    1.00   0.01  0.00  0.00  0.98  0.00  0.00  0.00  0.95  0.00
  WS02004406WS02004407    1.00   0.00  0.01  0.00  0.99  0.00  0.00  0.00  0.00  0.00
  WS02004405WS02004406    1.00   0.00  0.00  0.00  1.00  0.00  0.00  0.00  0.00  0.00
  WS02004404WS02004405    1.00   0.00  0.00  0.00  1.00  0.00  0.00  0.00  0.00  0.00
  WS02004403WS02004404    1.00   0.00  0.01  0.00  0.99  0.00  0.00  0.00  0.00  0.00
  WS02004402WS02004403    1.00   0.01  0.00  0.00  0.99  0.00  0.00  0.00  0.00  0.00
  WS02004139WS02001211    1.00   0.00  0.00  0.00  1.00  0.00  0.00  0.00  0.00  0.00
  WS02004138WS02004139    1.00   0.00  0.00  0.00  1.00  0.00  0.00  0.00  1.00  0.00
  WS02003067WS02003066    1.00   0.02  0.00  0.00  0.97  0.00  0.00  0.00  0.00  0.00
  WS02001213WS02003059    1.00   0.00  0.00  0.00  1.00  0.00  0.00  0.00  0.00  0.00
  WS02001212WS02001213    1.00   0.00  0.00  0.00  0.93  0.00  0.07  0.00  0.00  0.00
  WS02001211WS02001212    1.00   0.00  0.00  0.00  1.00  0.00  0.00  0.00  0.00  0.00
  WS02003072WS02003073    1.00   0.00  0.00  0.00  0.00  0.00  0.00  1.00  0.00  0.00
  WS02003069WS02003072    1.00   0.00  0.00  0.00  1.00  0.00  0.00  0.00  0.09  0.00
  WS02003060WS02003069    1.00   0.00  0.00  0.00  0.99  0.01  0.00  0.00  0.08  0.00
  WS02003059WS02003060    1.00   0.00  0.00  0.00  1.00  0.00  0.00  0.00  0.01  0.00
  HS02004901HS02004770    1.00   0.03  0.00  0.00  0.97  0.00  0.00  0.00  0.00  0.00
  HS02004876HS02004881    1.00   0.01  0.00  0.00  0.92  0.07  0.00  0.00  0.00  0.00
  HS02004870HS02004876    1.00   0.00  0.00  0.00  0.99  0.00  0.00  0.00  0.95  0.00
  HS02004842HS02004848    1.00   0.00  0.03  0.00  0.97  0.00  0.00  0.00  0.54  0.00
  HS02004837HS02004842    1.00   0.00  0.00  0.00  1.00  0.00  0.00  0.00  0.11  0.00
  HS02004830HS02004837    1.00   0.00  0.00  0.00  1.00  0.00  0.00  0.00  0.99  0.00
  HS02004824HS02004830    1.00   0.00  0.00  0.00  1.00  0.00  0.00  0.00  0.01  0.00
  HS02004817HS02004824    1.00   0.00  0.00  0.00  1.00  0.00  0.00  0.00  0.97  0.00
  HS02004770HS02004777    1.00   0.00  0.03  0.00  0.97  0.00  0.00  0.00  0.03  0.00
  HS02004799HS02004480    1.00   0.00  0.01  0.00  0.96  0.00  0.03  0.00  0.00  0.00
  HS02004792HS02004799    1.00   0.00  0.00  0.00  1.00  0.00  0.00  0.00  0.98  0.00
  HS02004788HS02004792    1.00   0.00  0.00  0.00  1.00  0.00  0.00  0.00  0.98  0.00
  HS02004785HS02004788    1.00   0.00  0.00  0.00  1.00  0.00  0.00  0.00  0.00  0.00
  HS02004777HS02004785    1.00   0.00  0.00  0.00  1.00  0.00  0.00  0.00  0.12  0.00
  HS02004480HS02004478    1.00   0.04  0.00  0.00  0.73  0.00  0.00  0.23  0.00  0.00
  HS02004479HS02004480    1.00   0.01  0.00  0.00  0.99  0.00  0.00  0.00  0.12  0.00
  HS02004862HS02004870    1.00   0.00  0.00  0.00  1.00  0.00  0.00  0.00  0.04  0.00
  HS02004848HS02004852    1.00   0.03  0.00  0.00  0.97  0.00  0.00  0.00  0.64  0.00
  HS02004856HS02004862    1.00   0.00  0.04  0.00  0.96  0.00  0.00  0.00  0.83  0.00
  HS02004852HS02004856    1.00   0.03  0.00  0.00  0.96  0.00  0.00  0.00  0.80  0.00
  HS02004802HS02004478    1.00   0.04  0.00  0.00  0.96  0.00  0.00  0.00  0.02  0.00
  HS02004478WS02006287    1.00   0.04  0.00  0.00  0.78  0.18  0.00  0.00  0.65  0.00
  HS02004817HS02004807    1.00   0.00  0.03  0.00  0.97  0.00  0.00  0.00  0.01  0.00
  HS02004807HS02004802    1.00   0.03  0.00  0.00  0.96  0.00  0.00  0.00  0.00  0.00
  YS02001759YS02001757    1.00   0.00  0.00  0.00  1.00  0.00  0.00  0.00  0.16  0.00
  YS02001762YS02001759    1.00   0.00  0.00  0.00  1.00  0.00  0.00  0.00  0.03  0.00
  YS02001765YS02001762    1.00   0.00  0.00  0.00  1.00  0.00  0.00  0.00  0.14  0.00
  YS02001770YS02001767    1.00   0.00  0.00  0.00  1.00  0.00  0.00  0.00  0.00  0.00
  YS02001774YS02001770    1.00   0.00  0.03  0.00  0.96  0.00  0.00  0.00  0.03  0.00
  YS02001779YS02001774    1.00   0.00  0.00  0.00  1.00  0.00  0.00  0.00  0.19  0.00
  YS02001649YS02001757    1.00   0.00  0.00  0.00  1.00  0.00  0.00  0.00  0.16  0.00
  YS02001767YS02001765    1.00   0.00  0.00  0.00  1.00  0.00  0.00  0.00  0.00  0.00
  YS02006561YS02001783    1.00   0.05  0.00  0.00  0.35  0.60  0.00  0.00  0.46  0.00
  YS02001783YS02001784    1.00   0.00  0.05  0.00  0.95  0.00  0.00  0.00  0.01  0.00
  YS02001784YS02001785    1.00   0.00  0.00  0.00  1.00  0.00  0.00  0.00  0.18  0.00
  YS02001788YS02001790    1.00   0.00  0.00  0.00  0.37  0.63  0.00  0.00  0.36  0.00
  YS02001790YS02001791    1.00   0.00  0.00  0.00  0.34  0.66  0.00  0.00  0.47  0.00
  YS02001791YS02001793    1.00   0.00  0.00  0.00  0.37  0.63  0.00  0.00  0.03  0.00
  YS02001910YS02001907    1.00   0.00  0.00  0.00  0.99  0.00  0.00  0.01  0.12  0.00
  YS02001786YS02001788    1.00   0.00  0.00  0.00  0.37  0.63  0.00  0.00  0.00  0.00
  YS02001915YS02001910    1.00   0.00  0.00  0.00  0.99  0.01  0.00  0.00  0.16  0.00
  YS02001918YS02001915    1.00   0.00  0.00  0.00  0.99  0.01  0.00  0.00  0.54  0.00
  YS02001923YS02001920    1.00   0.00  0.00  0.00  1.00  0.00  0.00  0.00  0.82  0.00
  YS02001926YS02001923    1.00   0.00  0.02  0.00  0.13  0.00  0.85  0.00  0.00  0.00
  YS02001929YS02001926    1.00   0.00  0.03  0.00  0.97  0.00  0.00  0.00  0.75  0.00
  YS02001920YS02001918    1.00   0.00  0.00  0.00  1.00  0.00  0.00  0.00  0.00  0.00
  YS02001629YS02163301    1.00   0.04  0.00  0.00  0.96  0.00  0.00  0.00  0.00  0.00
  YS02001619YS02001622    1.00   0.03  0.00  0.00  0.97  0.00  0.00  0.00  0.00  0.00
  YS02001622YS02001625    1.00   0.03  0.00  0.00  0.97  0.00  0.00  0.00  0.05  0.00
  YS02001625YS02001629    1.00   0.03  0.01  0.00  0.93  0.00  0.02  0.00  0.00  0.00
  YS02163301YS02001633    1.00   0.00  0.04  0.00  0.96  0.00  0.00  0.00  0.00  0.00
  YS02163601YS02164001    1.00   0.00  0.02  0.00  0.98  0.00  0.00  0.00  0.00  0.00
  YS02164001YS02001641    1.00   0.00  0.02  0.00  0.98  0.00  0.00  0.00  0.06  0.00
  YS02001641YS02001644    1.00   0.00  0.00  0.00  1.00  0.00  0.00  0.00  0.00  0.00
  YS02001647YS02001649    1.00   0.00  0.05  0.00  0.95  0.00  0.00  0.00  0.01  0.00
  YS02006553YS02006556    1.00   0.00  0.00  0.00  1.00  0.00  0.00  0.00  0.03  0.00
  YS02006556YS02006558    1.00   0.00  0.00  0.00  1.00  0.00  0.00  0.00  0.00  0.00
  YSB6556YSB1171          1.00   0.01  0.02  0.00  0.97  0.00  0.00  0.00  0.00  0.00
  YS02001907YS02006553    1.00   0.00  0.01  0.00  0.99  0.00  0.00  0.00  0.00  0.00
  YS02006558YS02006561    1.00   0.05  0.00  0.00  0.12  0.83  0.00  0.00  0.45  0.00
  YS02001633YS02163601    1.00   0.00  0.00  0.00  1.00  0.00  0.00  0.00  0.15  0.00
  YS02001644YS02001647    1.00   0.00  0.05  0.00  0.95  0.00  0.00  0.00  0.00  0.00
  YS02001745YS02001748    1.00   0.00  0.00  0.00  0.91  0.00  0.00  0.08  0.04  0.00
  YS02001748YS02001751    1.00   0.00  0.00  0.00  0.97  0.03  0.00  0.00  0.15  0.00
  YS02001751YS02001754    1.00   0.00  0.00  0.00  0.95  0.00  0.00  0.05  0.02  0.00
  YS02001754YS02001757    1.00   0.00  0.00  0.00  1.00  0.00  0.00  0.00  0.18  0.00
  YS02001882YS02001884    1.00   0.04  0.00  0.00  0.96  0.00  0.00  0.00  0.00  0.00
  YS02001884YS02001887    1.00   0.02  0.01  0.00  0.97  0.00  0.00  0.00  0.00  0.00
  YS02001890YS02001895    1.00   0.00  0.04  0.00  0.96  0.00  0.00  0.00  0.00  0.00
  YS02001895YS02001898    1.00   0.04  0.00  0.00  0.95  0.00  0.01  0.00  0.00  0.00
  YS02001898YS02001901    1.00   0.04  0.00  0.00  0.96  0.00  0.00  0.00  0.01  0.00
  YS02001901YS02001904    1.00   0.04  0.00  0.00  0.96  0.00  0.00  0.00  0.00  0.00
  YS02001904YS02001907    1.00   0.00  0.04  0.00  0.96  0.00  0.00  0.00  0.00  0.00
  YS02001887YS02001890    1.00   0.00  0.00  0.00  0.99  0.00  0.01  0.00  0.00  0.00
  YS02001652YS02001649    1.00   0.00  0.00  0.00  1.00  0.00  0.00  0.00  0.17  0.00
  YS02001655YS02001652    1.00   0.00  0.00  0.00  0.95  0.00  0.00  0.05  0.02  0.00
  YS02001658YS02001655    1.00   0.00  0.04  0.00  0.94  0.03  0.00  0.00  0.10  0.00
  YS02001661YS02001658    1.00   0.04  0.00  0.00  0.91  0.05  0.00  0.00  0.11  0.00
  YS02001664YS02001661    1.00   0.03  0.00  0.00  0.93  0.04  0.00  0.00  0.20  0.00
  YSB1154YSB6556          1.00   0.03  0.00  0.00  0.97  0.00  0.00  0.00  0.02  0.00
  YSB1174YSB1171          1.00   0.02  0.01  0.00  0.97  0.00  0.00  0.00  0.00  0.00
  YSB1171HS02004479       1.00   0.01  0.00  0.00  0.98  0.00  0.00  0.00  0.10  0.00
  HS02004881HS02006253    1.00   0.02  0.00  0.00  0.82  0.01  0.00  0.15  0.63  0.00
  YS02001793JiankangQianchi    1.00   0.00  0.00  0.00  0.65  0.35  0.00  0.00  0.41  0.00
  YS02001757CaochengTiaoxuchi    1.00   0.00  0.06  0.00  0.93  0.00  0.00  0.00  0.00  0.00
  WSF200WS02003060        1.00   0.00  0.01  0.00  0.97  0.02  0.00  0.00  0.30  0.00
  1                       1.00   0.00  0.00  0.00  0.00  1.00  0.00  0.00  0.51  0.00
  
  
  *************************
  Conduit Surcharge Summary
  *************************
  
  ----------------------------------------------------------------------------
                                                           Hours        Hours 
                         --------- Hours Full --------   Above Full   Capacity
  Conduit                Both Ends  Upstream  Dnstream   Normal Flow   Limited
  ----------------------------------------------------------------------------
  WS02006229WS02006228        4.54      4.59      4.54      5.11         4.54
  WS02006256WS02006235        6.10      6.10      6.84      4.91         0.01
  WS02006253WS02006251        2.37      2.37      2.44      0.01         0.01
  WS02006252WS02006251        1.75      1.75      2.54      1.89         0.01
  WS02006251WS02006249        2.39      2.39      2.50      1.15         1.06
  WS02006249WS02006248        2.42      2.42      2.50      4.45         0.01
  WS02006248WS02006247        2.49      2.49      2.66      0.01         0.01
  WS02006247WS02006245        2.66      2.70      2.66      4.65         2.52
  WS02006245WS02006243        2.70      2.70      2.83      0.06         0.24
  WS02006243WS02006242        2.88      2.88      3.63      0.01         0.01
  WS02006242WS02006240        3.50      3.50      3.77      2.41         0.01
  WS02006240WS02006239        3.57      3.57      3.72      0.99         0.69
  WS02006239WS02006238        3.88      3.88      3.98      1.14         0.87
  WS02006238WS02006235        3.97      3.97      4.05      0.01         0.02
  WS02006235WS02006234        3.76      3.76      3.94      6.04         0.01
  WS02006234WS02006232        3.86      3.86      4.18      1.41         1.37
  WS02006232WS02006231        2.83      2.83      4.18      1.72         0.01
  WS02006231WS02006230        2.28      2.28      2.89      6.15         0.01
  WS02006230WS02006229        4.75      5.00      4.75      6.26         4.75
  WS02006228WS02006109        4.56      4.67      4.56      5.64         4.56
[...]
  YS02001770YS02001767        5.69      5.69      5.69      0.20         0.72
  YS02001774YS02001770        5.67      5.67      5.74      0.01         0.01
  YS02001779YS02001774        5.56      5.56      5.74      0.01         0.01
  YS02001649YS02001757        5.75      5.75      5.86      0.01         0.01
  YS02001767YS02001765        5.69      5.69      5.72      0.01         0.01
  YS02006561YS02001783        0.86      0.86      1.18      0.01         0.01
  YS02001783YS02001784        1.14      1.18      1.14      1.56         1.14
  YS02001784YS02001785        0.98      1.14      0.98      2.50         0.98
  YS02001788YS02001790        0.89      0.89      1.68      0.01         0.01
  YS02001790YS02001791        1.68      1.68      1.77      1.11         0.97
  YS02001791YS02001793        1.77      1.77      2.13      0.01         0.01
  YS02001910YS02001907        1.24      1.24      1.86      0.01         0.01
  YS02001786YS02001788        0.89      0.98      0.89      2.04         0.89
  YS02001915YS02001910        1.04      1.04      1.24      0.01         0.01
  YS02001918YS02001915        0.85      0.85      1.04      0.01         0.01
  YS02001923YS02001920        0.71      0.71      0.88      0.01         0.01
  YS02001920YS02001918        0.85      0.85      0.88      0.01         0.01
  YS02001629YS02163301        5.67      5.67      5.69      0.01         0.01
  YS02001619YS02001622        5.37      5.37      5.41      0.01         0.01
  YS02001622YS02001625        5.41      5.41      5.64      0.01         0.01
  YS02001625YS02001629        5.38      5.38      5.64      0.01         0.01
  YS02163301YS02001633        5.69      5.69      5.72      0.01         0.01
  YS02163601YS02164001        5.72      5.72      5.75      0.01         0.01
  YS02164001YS02001641        5.72      5.72      5.73      0.01         0.03
  YS02001641YS02001644        5.73      5.73      5.73      1.72         1.88
  YS02001647YS02001649        5.62      5.62      5.75      0.01         0.01
  YS02006553YS02006556        1.47      1.47      1.94      0.01         0.01
  YS02006556YS02006558        1.66      1.66      2.06      0.01         0.01
  YSB6556YSB1171              0.01      0.01      0.07      0.01         0.01
  YS02001907YS02006553        2.52      2.52      2.74      0.01         0.01
  YS02006558YS02006561        0.97      1.43      0.97      2.36         0.97
  YS02001633YS02163601        5.71      5.71      5.75      0.01         0.01
  YS02001644YS02001647        5.62      5.62      5.73      0.01         0.01
  YS02001745YS02001748        0.01      0.01      5.23      0.01         0.01
  YS02001748YS02001751        5.27      5.27      5.36      0.01         0.01
  YS02001751YS02001754        5.36      5.36      5.57      0.01         0.01
  YS02001754YS02001757        5.61      5.61      5.86      0.01         0.01
  YS02001882YS02001884        1.06      1.06      1.09      0.01         0.01
  YS02001884YS02001887        1.13      1.13      1.17      0.01         0.01
  YS02001890YS02001895        1.03      1.03      1.26      0.01         0.01
  YS02001895YS02001898        1.01      1.01      1.03      0.01         0.01
  YS02001898YS02001901        1.04      1.04      1.12      0.01         0.01
  YS02001901YS02001904        1.10      1.10      1.12      0.01         0.01
  YS02001904YS02001907        1.10      1.10      1.98      0.01         0.01
  YS02001887YS02001890        1.19      1.19      1.22      0.16         0.01
  YS02001652YS02001649        5.63      5.63      5.75      0.01         0.01
  YS02001655YS02001652        5.39      5.39      5.61      0.01         0.01
  YS02001658YS02001655        5.25      5.25      5.40      0.01         0.01
  YS02001661YS02001658        0.15      0.15      5.25      0.01         0.01
  YS02001664YS02001661        0.01      0.01      1.18      0.01         0.01
  HS02004881HS02006253        0.01      0.01      1.67      0.01         0.01
  YS02001793JiankangQianchi        2.03      2.03      3.92      0.01         0.01
  YS02001757CaochengTiaoxuchi        5.11      5.11      5.86      0.01         0.01
  
  
  ***************
  Pumping Summary
  ***************
  
  ---------------------------------------------------------------------------------------------------------
                                                  Min       Avg       Max     Total     Power    % Time Off
                        Percent   Number of      Flow      Flow      Flow    Volume     Usage    Pump Curve
  Pump                 Utilized   Start-Ups       LPS       LPS       LPS  10^6 ltr     Kw-hr    Low   High
  ---------------------------------------------------------------------------------------------------------
  CC-Pump-1               63.83           1      0.00    192.07    200.00     3.420      3.39    0.0    0.0
  CC-Pump-2               34.03           5      0.00     98.44    200.00     1.200      1.64    0.0    0.0
  JK-Pump-1               68.08           4      0.00    220.99    300.00     4.378     68.57    0.0    0.0
  JK-Pump-2               53.19           5      0.00    387.13    683.00     6.007     86.12    0.0   95.8
  XR-Pump-1               95.75           3      0.00     93.39     95.00     2.451     22.29    0.0    0.0
  XR-Pump-2               95.75           3      0.00     93.39     95.00     2.451     22.29    0.0    0.0
  XR-Pump-3               95.75           3      0.00     93.39     95.00     2.451     22.29    0.0    0.0
  XR-Pump-4               95.75           3      0.00     93.39     95.00     2.451     22.29    0.0    0.0
  
  
  ***************************
  Link Pollutant Load Summary
  ***************************
  
  ------------------------------------------------------------------------------------------
                                 COD            SS            TN            TP         NH4-N
  Link                            kg            kg            kg            kg            kg
  ------------------------------------------------------------------------------------------
  WS02003066WSF200           939.620      1751.739        24.143         2.083        12.649
  WS02006287WS02006284       319.504       608.168        10.315         1.015         5.679
  WS02006284WS02006280       319.985       608.956        10.361         1.021         5.708
  WS02006280WS02006229       319.926       608.837        10.359         1.020         5.706
  WS02006229WS02006228       935.402      1744.002        23.543         2.001        12.264
  WS02006256WS02006235       223.278       411.320         4.951         0.386         2.507
  WS02006253WS02006251        59.167       116.687         1.281         0.094         0.631
  WS02006252WS02006251       395.559       723.722         8.230         0.589         4.043
  WS02006251WS02006249       448.998       829.989         9.423         0.680         4.637
  WS02006249WS02006248       402.958       743.083         8.473         0.611         4.171
  WS02006248WS02006247       402.324       741.941         8.460         0.611         4.164
  WS02006247WS02006245       401.583       740.610         8.443         0.609         4.156
  WS02006245WS02006243       400.681       739.059         8.421         0.608         4.144
  WS02006243WS02006242       399.537       737.006         8.398         0.606         4.133
  WS02006242WS02006240       398.633       735.377         8.384         0.605         4.127
  WS02006240WS02006239       398.239       734.600         8.391         0.607         4.133
  WS02006239WS02006238       398.473       734.769         8.435         0.613         4.162
  WS02006238WS02006235       398.579       734.775         8.455         0.615         4.175
  WS02006235WS02006234       618.288      1140.103        13.255         0.986         6.595
  WS02006234WS02006232       617.907      1139.404        13.253         0.986         6.595
  WS02006232WS02006231       617.389      1138.482        13.240         0.985         6.588
  WS02006231WS02006230       616.833      1137.469        13.229         0.985         6.583
  WS02006230WS02006229       616.097      1136.225        13.206         0.982         6.570
  WS02006228WS02006109       934.876      1743.068        23.529         2.000        12.258
  WS02006116WS02004401       950.313      1770.923        24.402         2.104        12.781
  WS02006115WS02006116       951.268      1772.593        24.431         2.106        12.797
  WS02006113WS02006111       941.311      1753.005        24.278         2.095        12.731
  WS02006112WS02006115       952.293      1774.362        24.470         2.110        12.819
  WS02006111WS02006112       940.979      1752.450        24.268         2.094        12.725
  WS02006110WS02006113       941.896      1754.045        24.299         2.097        12.742
  WS02006109WS02006110       942.844      1755.714        24.336         2.101        12.764
  WS02004411WS02004412       943.040      1757.798        24.260         2.095        12.714
  WS02004401WS02004402       949.304      1769.164        24.366         2.100        12.761
  WS02004413WS02003067       940.306      1753.017        24.159         2.084        12.657
  WS02004412WS02004413       941.822      1755.650        24.221         2.091        12.693
  WS02004410WS02004411       944.057      1759.612        24.290         2.097        12.730
  WS02004409WS02004410       945.083      1761.428        24.323         2.100        12.748
  WS02004407WS02004409       945.920      1762.924        24.346         2.102        12.761
  WS02004406WS02004407       946.152      1763.372        24.348         2.102        12.761
  WS02004405WS02004406       947.470      1765.696        24.400         2.108        12.790
  WS02004404WS02004405       948.159      1766.973        24.398         2.106        12.786
  WS02004403WS02004404       947.565      1766.112        24.307         2.094        12.728
  WS02004402WS02004403       948.413      1767.599        24.337         2.097        12.745
  WS02004139WS02001211      1370.010      2275.132       111.143        13.566        68.507
  WS02004138WS02004139      1376.459      2285.898       111.642        13.626        68.814
  WS02003067WS02003066       939.829      1752.120        24.150         2.084        12.653
  WS02001213WS02003059      1402.982      2326.904       114.570        13.999        70.661
  WS02001212WS02001213      1412.472      2342.620       115.341        14.093        71.136
  WS02001211WS02001212      1414.300      2345.620       115.495        14.112        71.232
  WS02003072WS02003073      2442.262      4236.794       148.690        17.335        89.563
  WS02003069WS02003072      2447.436      4245.342       149.081        17.382        89.803
  WS02003060WS02003069      2450.017      4249.832       149.212        17.397        89.880
  WS02003059WS02003060      1400.070      2321.991       114.351        13.972        70.527
  HS02004901HS02004770        13.094        25.475         0.248         0.019         0.116
  HS02004876HS02004881        45.517        90.352         0.999         0.073         0.491
  HS02004870HS02004876        34.384        68.109         0.798         0.060         0.395
  HS02004842HS02004848         6.456        12.343         0.134         0.009         0.062
  HS02004837HS02004842        11.056        19.636         0.603         0.068         0.356
  HS02004830HS02004837        70.299       122.729         4.644         0.552         2.827
  HS02004824HS02004830        71.071       123.986         4.715         0.561         2.871
  HS02004817HS02004824        97.166       176.413         5.255         0.596         3.135
  HS02004770HS02004777        49.664        97.717         1.021         0.069         0.472
  HS02004799HS02004480       162.332       310.856         4.263         0.379         2.209
  HS02004792HS02004799       147.279       280.136         4.028         0.367         2.105
  HS02004788HS02004792        82.820       157.693         2.666         0.255         1.440
  HS02004785HS02004788        51.123       100.054         1.172         0.089         0.567
  HS02004777HS02004785        50.447        98.947         1.112         0.081         0.530
  HS02004480HS02004478       204.830       395.207         4.972         0.429         2.543
  HS02004479HS02004480        46.130        90.118         1.037         0.091         0.538
  HS02004862HS02004870        25.801        50.342         0.628         0.050         0.314
  HS02004848HS02004852        10.252        19.885         0.210         0.014         0.097
  HS02004856HS02004862        17.525        34.751         0.350         0.023         0.164
  HS02004852HS02004856        10.256        19.890         0.210         0.014         0.097
  HS02004802HS02004478       115.345       214.059         5.398         0.592         3.169
  HS02004478WS02006287       319.710       608.522        10.332         1.017         5.689
  HS02004817HS02004807        95.861       174.318         5.130         0.581         3.057
  HS02004807HS02004802       115.601       214.460         5.430         0.596         3.190
  YS02001759YS02001757       375.619       690.246         7.498         0.520         3.662
  YS02001762YS02001759       174.827       321.873         3.709         0.261         1.835
  YS02001765YS02001762       174.853       322.308         3.730         0.263         1.848
  YS02001770YS02001767       174.048       322.175         3.512         0.232         1.705
  YS02001774YS02001770       239.904       469.779         4.585         0.304         2.213
  YS02001779YS02001774       238.773       467.482         4.665         0.317         2.271
  YS02001649YS02001757       325.951       587.792         6.522         0.453         3.130
  YS02001767YS02001765       175.345       323.561         3.754         0.265         1.861
  YS02006561YS02001783      1025.576      1901.122        21.495         1.604        10.696
  YS02001783YS02001784      1025.434      1900.891        21.490         1.604        10.694
  YS02001784YS02001785      1032.758      1912.636        22.203         1.693        11.140
  YS02001788YS02001790      1033.333      1913.576        22.275         1.702        11.185
  YS02001790YS02001791      1034.390      1915.341        22.374         1.715        11.248
  YS02001791YS02001793      1034.297      1915.158        22.370         1.714        11.245
  YS02001910YS02001907       391.106       721.371         9.386         0.718         4.809
  YS02001786YS02001788      1032.958      1912.986        22.231         1.697        11.157
  YS02001915YS02001910       391.151       721.446         9.337         0.711         4.776
  YS02001918YS02001915       186.129       328.331         5.125         0.466         2.760
  YS02001923YS02001920       165.581       295.097         3.167         0.222         1.537
  YS02001926YS02001923       164.516       293.314         3.099         0.214         1.496
  YS02001929YS02001926       164.243       292.858         3.066         0.210         1.475
  YS02001920YS02001918       185.346       326.703         5.080         0.462         2.733
  YS02001629YS02163301        96.116       169.955         2.029         0.131         0.946
  YS02001619YS02001622       175.871       321.130         3.601         0.236         1.684
  YS02001622YS02001625       174.669       319.217         3.573         0.234         1.670
  YS02001625YS02001629        97.195       171.719         2.053         0.132         0.957
  YS02163301YS02001633        96.465       170.804         2.031         0.132         0.948
  YS02163601YS02164001       405.700       733.109         7.898         0.562         3.783
  YS02164001YS02001641       405.152       732.176         7.878         0.560         3.772
  YS02001641YS02001644       405.208       732.192         7.873         0.560         3.769
  YS02001647YS02001649       419.621       770.479         8.268         0.577         3.942
  YS02006553YS02006556       691.721      1271.672        14.870         1.138         7.484
  YS02006556YS02006558       691.622      1271.472        14.840         1.134         7.464
  YSB6556YSB1171              26.522        51.968         0.537         0.045         0.272
  YS02001907YS02006553       691.843      1271.925        14.878         1.140         7.489
  YS02006558YS02006561      1025.594      1901.151        21.495         1.604        10.696
  YS02001633YS02163601       406.438       734.263         7.879         0.558         3.768
  YS02001644YS02001647       425.938       781.865         8.374         0.585         3.992
  YS02001745YS02001748       250.446       468.123         5.541         0.386         2.760
  YS02001748YS02001751       248.103       463.777         5.549         0.391         2.774
  YS02001751YS02001754       247.143       462.192         5.535         0.391         2.769
  YS02001754YS02001757       247.895       463.315         5.699         0.413         2.875
  YS02001882YS02001884         3.592         6.234         0.072         0.006         0.036
  YS02001884YS02001887         6.424        11.362         0.127         0.010         0.063
  YS02001890YS02001895       450.833       846.212         8.299         0.624         4.048
  YS02001895YS02001898       450.676       846.015         8.293         0.624         4.045
  YS02001898YS02001901       450.435       845.587         8.288         0.623         4.042
  YS02001901YS02001904       450.275       845.366         8.294         0.624         4.047
  YS02001904YS02001907       450.457       845.632         8.346         0.631         4.081
  YS02001887YS02001890       468.139       880.528         8.643         0.652         4.222
  YS02001652YS02001649       198.952       370.303         4.000         0.288         1.877
  YS02001655YS02001652       199.419       371.079         4.013         0.289         1.883
  YS02001658YS02001655       198.785       370.092         3.922         0.277         1.824
  YS02001661YS02001658       202.277       376.384         3.992         0.282         1.857
  YS02001664YS02001661       219.214       403.975         4.379         0.308         2.034
  YSB1154YSB6556              26.086        51.273         0.486         0.038         0.239
  YSB1174YSB1171              18.022        35.564         0.361         0.029         0.181
  YSB1171HS02004479           46.094        90.061         1.040         0.092         0.540
  HS02004881HS02006253        51.772       103.241         1.103         0.079         0.539
  YS02001793JiankangQianchi      1034.814      1915.942        22.398         1.718        11.262
  YS02001757CaochengTiaoxuchi       659.429      1192.719        13.887         0.988         6.820
  WSF200WS02003060           939.537      1751.538        24.150         2.084        12.654
  1                         2448.495      4245.983       149.480        17.437        90.064
  CC-Pump-1                  290.951       531.770         6.061         0.434         2.977
  CC-Pump-2                  104.646       192.018         2.170         0.155         1.066
  JK-Pump-1                  303.889       566.246         6.438         0.489         3.221
  JK-Pump-2                  501.052       937.749        10.537         0.797         5.262
  XR-Pump-1                  345.039       573.003        27.987         3.416        17.250
  XR-Pump-2                  345.039       573.003        27.987         3.416        17.250
  XR-Pump-3                  345.039       573.003        27.987         3.416        17.250
  XR-Pump-4                  345.039       573.003        27.987         3.416        17.250
  

  Analysis begun on:  Wed Jul 14 12:17:19 2021
  Analysis ended on:  Wed Jul 14 12:17:22 2021
  Total elapsed time: 00:00:03