
  EPA STORM WATER MANAGEMENT MODEL - VERSION 5.1 (Build 5.3.0.dev0)
  --------------------------------------------------------------

  WARNING 04: minimum elevation drop used for Conduit WS02004404WS02004405
  WARNING 03: negative offset ignored for Link YS02001904YS02001907
  
  *********************************************************
  NOTE: The summary statistics displayed in this report are
  based on results found at every computational time step,  
  not just on results from each reporting time step.
  *********************************************************
  
  ****************
  Analysis Options
  ****************
  Flow Units ............... LPS
  Process Models:
    Rainfall/Runoff ........ YES
    RDII ................... NO
    Snowmelt ............... NO
    Groundwater ............ NO
    Flow Routing ........... YES
    Ponding Allowed ........ NO
    Water Quality .......... YES
  Infiltration Method ...... HORTON
  Flow Routing Method ...... DYNWAVE
  Surcharge Method ......... EXTRAN
  Starting Date ............ 08/28/2015 08:00:00
  Ending Date .............. 08/28/2015 15:50:00
  Antecedent Dry Days ...... 8.0
  Report Time Step ......... 00:01:00
  Wet Time Step ............ 00:01:00
  Dry Time Step ............ 00:01:00
  Routing Time Step ........ 5.00 sec
  Variable Time Step ....... YES
  Maximum Trials ........... 8
  Number of Threads ........ 4
  Head Tolerance ........... 0.001500 m
  
  
  **************************        Volume         Depth
  Runoff Quantity Continuity     hectare-m            mm
  **************************     ---------       -------
  Total Precipitation ......         6.144        13.452
  Evaporation Loss .........         0.000         0.000
  Infiltration Loss ........         1.064         2.328
  Surface Runoff ...........         4.147         9.079
  Final Storage ............         0.935         2.047
  Continuity Error (%) .....        -0.020
  
  
  **************************           COD            SS            TN            TP         NH4-N
  Runoff Quality Continuity             kg            kg            kg            kg            kg
  **************************    ----------    ----------    ----------    ----------    ----------
  Initial Buildup ..........     41378.656     70582.865      1804.177       168.684      1032.807
  Surface Buildup ..........        21.799        40.924         2.400         0.218         1.395
  Wet Deposition ...........         0.000         0.000         0.000         0.000         0.000
  Sweeping Removal .........         0.000         0.000         0.000         0.000         0.000
  Infiltration Loss ........        97.311       184.943         1.849         0.130         0.881
  BMP Removal ..............         0.000         0.000         0.000         0.000         0.000
  Surface Runoff ...........      3769.819      7064.251        72.781         4.964        34.599
  Remaining Buildup ........     37531.916     63371.884      1731.919       163.806       998.709
  Continuity Error (%) .....         0.003         0.004         0.002         0.001         0.001
  
  
  **************************        Volume        Volume
  Flow Routing Continuity        hectare-m      10^6 ltr
  **************************     ---------     ---------
  Dry Weather Inflow .......         0.616         6.165
  Wet Weather Inflow .......         4.145        41.451
  Groundwater Inflow .......         0.000         0.000
  RDII Inflow ..............         0.000         0.000
  External Inflow ..........         0.102         1.024
  External Outflow .........         2.058        20.583
  Flooding Loss ............         2.355        23.551
  Evaporation Loss .........         0.000         0.000
  Exfiltration Loss ........         0.000         0.000
  Initial Stored Volume ....         0.076         0.761
  Final Stored Volume ......         0.649         6.486
  Continuity Error (%) .....        -2.470
  
  
  **************************           COD            SS            TN            TP         NH4-N
  Quality Routing Continuity            kg            kg            kg            kg            kg
  **************************    ----------    ----------    ----------    ----------    ----------
  Dry Weather Inflow .......      1541.201      2465.922       147.955        18.494        92.472
  Wet Weather Inflow .......      3768.952      7062.775        72.762         4.963        34.591
  Groundwater Inflow .......         0.000         0.000         0.000         0.000         0.000
  RDII Inflow ..............         0.000         0.000         0.000         0.000         0.000
  External Inflow ..........       183.418       293.469        17.608         2.201        11.005
  External Outflow .........      2436.231      4220.580       149.296        17.428        89.982
  Flooding Loss ............      2395.779      4471.747        61.831         5.419        32.553
  Exfiltration Loss ........         0.000         0.000         0.000         0.000         0.000
  Mass Reacted .............         0.000         0.000         0.000         0.000         0.000
  Initial Stored Mass ......         0.000         0.000         0.000         0.000         0.000
  Final Stored Mass ........       532.438       910.726        23.990         2.561        13.903
  Continuity Error (%) .....         2.350         2.231         1.346         0.977         1.180
  
  
  *************************
  Highest Continuity Errors
  *************************
  Node HS02004842 (13.41%)
  Node JK-storage (-11.41%)
  Node YS02001884 (9.24%)
  Node HS02004817 (2.53%)
  Node YSB1171 (2.46%)
  
  
  ***************************
  Time-Step Critical Elements
  ***************************
  Link WS02006252WS02006251 (67.57%)
  Link WS02006280WS02006229 (9.38%)
  Link WS02006238WS02006235 (5.54%)
  Link YS02006556YS02006558 (2.60%)
  Link YS02001793JiankangQianchi (2.47%)
  
  
  ********************************
  Highest Flow Instability Indexes
  ********************************
  Link WS02006113WS02006111 (37)
  Link YS02163601YS02164001 (29)
  Link YS02001774YS02001770 (28)
  Link WS02006111WS02006112 (28)
  Link YS02001629YS02163301 (28)
  
  
  *************************
  Routing Time Step Summary
  *************************
  Minimum Time Step           :     0.01 sec
  Average Time Step           :     1.09 sec
  Maximum Time Step           :     5.00 sec
  Percent in Steady State     :    -0.00
  Average Iterations per Step :     4.05
  Percent Not Converging      :    16.71
  
  
  ***************************
  Subcatchment Runoff Summary
  ***************************
  
  ------------------------------------------------------------------------------------------------------------------------------
                            Total      Total      Total      Total     Imperv       Perv      Total       Total     Peak  Runoff
                           Precip      Runon       Evap      Infil     Runoff     Runoff     Runoff      Runoff   Runoff   Coeff
  Subcatchment                 mm         mm         mm         mm         mm         mm         mm    10^6 ltr      LPS
  ------------------------------------------------------------------------------------------------------------------------------
  sub0                      13.45       0.00       0.00       0.63      12.47       0.31      12.77        0.01     3.75   0.950
  sub1                      13.45       0.00       0.00       1.12      11.88       0.36      12.24        0.08    25.66   0.910
  sub2                      13.45       0.00       0.00       4.44       8.39       0.53       8.92        0.08    25.29   0.663
  sub3                      13.45       0.00       0.00       4.56       8.35       0.42       8.77        0.20    55.75   0.652
  sub4                      13.45       0.00       0.00       1.22      11.71       0.26      11.97        0.25    65.52   0.890
  sub5                      13.45       0.00       0.00       0.68      12.41       0.26      12.67        0.14    44.76   0.942
  sub7                      13.45       0.00       0.00       0.86      12.18       0.35      12.53        0.04    14.26   0.931
  sub8                      13.45       0.00       0.00       0.87      12.17       0.34      12.50        0.08    26.26   0.930
  sub9                      13.45       0.00       0.00       0.88      12.17       0.33      12.50        0.06    19.64   0.929
  sub10                     13.45       0.00       0.00       0.78      12.29       0.29      12.58        0.14    44.00   0.935
  sub11                     13.45       0.00       0.00       0.77      12.30       0.31      12.61        0.15    48.45   0.938
  sub12                     13.45       0.00       0.00       1.25      11.66       0.50      12.16        0.11    38.10   0.904
  sub14                     13.45       0.00       0.00       0.88      12.16       0.33      12.49        0.12    38.67   0.929
  sub15                     13.45       0.00       0.00       3.37       9.35       0.66      10.01        0.17    57.01   0.744
  sub16                     13.45       0.00       0.00       3.56       8.97       0.88       9.85        0.10    37.63   0.732
  sub17                     13.45       0.00       0.00       3.47       9.10       0.84       9.94        0.09    30.67   0.739
  sub22                     13.45       0.00       0.00       4.98       7.63       0.81       8.43        0.53   184.54   0.627
  sub23                     13.45       0.00       0.00       4.17       8.43       0.81       9.24        0.44   154.22   0.687
  sub60                     13.45       0.00       0.00       1.53       9.85       0.09       9.93        3.01   438.14   0.738
  sub61                     13.45       0.00       0.00       2.16       9.95       0.12      10.07        3.11   536.45   0.749
  sub62                     13.45       0.00       0.00       0.98      10.84       0.10      10.94        3.36   552.35   0.813
  sub63                     13.45       0.00       0.00       3.77       8.69       0.14       8.83        2.67   492.63   0.656
  sub64                     13.45       0.00       0.00       1.93       9.45       0.09       9.54        2.90   416.72   0.709
  sub65                     13.45       0.00       0.00       1.67       9.61       0.08       9.70        2.98   423.09   0.721
  sub66                     13.45       0.00       0.00       3.81       8.10       0.09       8.18        2.51   380.66   0.608
  sub67                     13.45       0.00       0.00       0.95      11.38       0.13      11.51        3.55   679.52   0.856
  sub68                     13.45       0.00       0.00       1.75      10.45       0.13      10.59        3.26   586.26   0.787
  sub69                     13.45       0.00       0.00       1.83      10.79       0.19      10.98        2.57   544.72   0.816
  sub70                     13.45      11.20       0.00       7.51      14.65       0.88      15.52        3.55   494.81   0.630
  sub71                     13.45       0.00       0.00       0.99      10.58       0.09      10.67        2.52   389.24   0.793
  sub72                     13.45       0.00       0.00       0.89       8.56       0.05       8.61        1.75   189.18   0.640
  1                         13.45      15.11       0.00       1.37      16.56       4.63      21.19        4.98   484.42   0.742
  2                         13.45       0.00       0.00       3.02       3.21       1.96       5.17        2.07   340.45   0.384
  
  
  ****************************
  Subcatchment Washoff Summary
  ****************************
  
  ------------------------------------------------------------------------------------------
                                 COD            SS            TN            TP         NH4-N
  Subcatchment                    kg            kg            kg            kg            kg
  ------------------------------------------------------------------------------------------
  sub0                         2.670         5.197         0.046         0.004         0.022
  sub1                        11.241        22.423         0.210         0.015         0.101
  sub2                         6.894        13.384         0.145         0.010         0.067
  sub3                        16.924        32.573         0.350         0.024         0.161
  sub4                        25.772        51.904         0.510         0.031         0.245
  sub5                        25.778        50.682         0.460         0.035         0.223
  sub7                         5.751        11.638         0.108         0.007         0.052
  sub8                         8.581        17.755         0.171         0.010         0.082
  sub9                         7.353        15.005         0.142         0.009         0.068
  sub10                       21.202        42.223         0.389         0.028         0.188
  sub11                       20.657        41.614         0.386         0.026         0.187
  sub12                       17.724        35.094         0.321         0.024         0.155
  sub14                       15.732        31.800         0.298         0.020         0.144
  sub15                       20.231        39.321         0.389         0.028         0.182
  sub16                       13.129        25.518         0.249         0.019         0.117
  sub17                       12.049        23.208         0.222         0.017         0.105
  sub22                       62.582       119.432         1.186         0.090         0.554
  sub23                       36.683        72.439         0.776         0.051         0.357
  sub60                      243.520       456.962         4.842         0.298         2.321
  sub61                      302.151       564.434         5.627         0.386         2.710
  sub62                      313.722       596.076         6.119         0.388         2.938
  sub63                      223.275       410.850         4.468         0.314         2.075
  sub64                      305.877       553.773         5.626         0.410         2.687
  sub65                      313.037       569.066         5.795         0.415         2.772
  sub66                      176.068       321.340         3.608         0.236         1.687
  sub67                      466.222       877.505         8.365         0.616         4.045
  sub68                      332.037       626.413         6.347         0.429         3.034
  sub69                      298.258       568.561         5.590         0.393         2.674
  sub70                      502.897       962.303        10.037         0.699         4.710
  sub71                      206.745       396.330         4.242         0.246         2.030
  sub72                      164.385       293.107         3.069         0.210         1.476
  1                          349.075       671.606         7.102         0.495         3.297
  2                           42.749        75.577         1.214         0.073         0.518
  ------------------------------------------------------------------------------------------
  System                    4570.974      8595.115        88.408         6.057        41.983
  
  
  ******************
  Node Depth Summary
  ******************
  
  ---------------------------------------------------------------------------------
                                 Average  Maximum  Maximum  Time of Max    Reported
                                   Depth    Depth      HGL   Occurrence   Max Depth
  Node                 Type       Meters   Meters   Meters  days hr:min      Meters
  ---------------------------------------------------------------------------------
  WS02001211           JUNCTION     0.77     0.85     5.69     0  03:07        0.85
  WS02001212           JUNCTION     0.48     0.58     5.64     0  03:06        0.58
  WS02001213           JUNCTION     0.73     0.85     5.62     0  03:05        0.85
  WS02003069           JUNCTION     0.54     0.72     5.30     0  03:05        0.72
  WS02003072           JUNCTION     0.60     0.76     5.13     0  03:06        0.76
  WS02003073           JUNCTION     0.36     0.48     4.54     0  03:06        0.48
  WS02003060           JUNCTION     0.47     0.63     5.57     0  03:05        0.63
  WS02003066           JUNCTION     0.26     0.39     5.94     0  03:04        0.39
  WS02003059           JUNCTION     0.78     0.91     5.60     0  03:05        0.91
  WS02003067           JUNCTION     0.63     0.82     6.14     0  03:03        0.82
  WS02004401           JUNCTION     0.76     1.24     7.24     0  03:01        1.23
  WS02004402           JUNCTION     0.79     1.22     7.18     0  03:02        1.22
  WS02004403           JUNCTION     0.81     1.20     7.13     0  03:02        1.19
  WS02004404           JUNCTION     0.88     1.25     7.10     0  03:01        1.24
  WS02004406           JUNCTION     0.88     1.16     6.99     0  03:02        1.16
  WS02004409           JUNCTION     0.58     0.96     6.73     0  03:03        0.96
  WS02004410           JUNCTION     0.59     0.95     6.67     0  03:03        0.95
  WS02004411           JUNCTION     0.60     0.93     6.61     0  03:03        0.93
  WS02004412           JUNCTION     0.61     0.90     6.54     0  03:03        0.90
  WS02004413           JUNCTION     0.76     1.02     6.49     0  03:03        1.02
  WS02004405           JUNCTION     0.87     1.22     7.07     0  03:02        1.22
  WS02006109           JUNCTION     0.86     1.65     8.27     0  03:02        1.64
  WS02006110           JUNCTION     0.83     1.45     8.04     0  03:02        1.44
  WS02006111           JUNCTION     0.27     0.88     7.59     0  03:02        0.88
  WS02006112           JUNCTION     0.95     1.56     7.44     0  03:02        1.55
  WS02006113           JUNCTION     0.40     0.92     7.82     0  03:02        0.92
  WS02006115           JUNCTION     0.66     1.22     7.36     0  03:02        1.21
  WS02006116           JUNCTION     0.74     1.26     7.30     0  03:02        1.25
  WS02006230           JUNCTION     0.89     1.88     8.62     0  03:02        1.87
  WS02006231           JUNCTION     0.62     1.52     8.65     0  03:02        1.51
  WS02006232           JUNCTION     0.77     1.62     8.66     0  03:02        1.61
  WS02006234           JUNCTION     0.71     1.52     8.68     0  03:02        1.52
  WS02006235           JUNCTION     0.75     1.54     8.70     0  03:02        1.52
  WS02006238           JUNCTION     0.78     1.56     8.70     0  03:02        1.54
  WS02006240           JUNCTION     0.68     1.40     8.70     0  03:01        1.40
  WS02006242           JUNCTION     0.74     1.43     8.70     0  03:01        1.42
  WS02006243           JUNCTION     0.62     1.28     8.70     0  03:01        1.27
  WS02006245           JUNCTION     0.59     1.21     8.70     0  03:01        1.20
  WS02006247           JUNCTION     0.60     1.20     8.70     0  03:01        1.19
  WS02006248           JUNCTION     0.54     1.10     8.69     0  02:58        1.10
  WS02006249           JUNCTION     0.55     1.09     8.69     0  02:55        1.09
  WS02006239           JUNCTION     0.74     1.49     8.70     0  03:02        1.48
  WS02006251           JUNCTION     0.53     1.26     8.93     0  03:58        1.13
  WS02006252           JUNCTION     0.34     0.80     9.04     0  03:58        0.69
  WS02006253           JUNCTION     0.56     1.32     8.96     0  02:55        1.16
  WS02006256           JUNCTION     1.82     2.35     9.28     0  00:00        2.35
  WS02004138           JUNCTION     0.19     0.20     7.45     0  00:00        0.19
  WS02004139           JUNCTION     0.72     0.79     5.70     0  03:07        0.79
  WS02004407           JUNCTION     0.26     0.40     6.71     0  03:03        0.40
  WS02006228           JUNCTION     0.88     1.83     8.48     0  03:02        1.82
  WS02006229           JUNCTION     0.87     1.90     8.59     0  03:02        1.89
  WS02006280           JUNCTION     0.07     0.30     8.57     0  03:05        0.30
  WS02006284           JUNCTION     0.37     0.65     9.04     0  03:02        0.64
  WS02006287           JUNCTION     0.10     0.39     9.34     0  03:02        0.39
  WSF200               JUNCTION     0.26     0.44     5.67     0  03:04        0.44
  HS02004901           JUNCTION     0.13     0.38    10.20     0  03:01        0.37
  HS02004881           JUNCTION     0.01     0.05     9.08     0  03:01        0.05
  HS02004876           JUNCTION     0.04     0.16     9.19     0  03:01        0.16
  HS02004870           JUNCTION     0.02     0.09     9.38     0  03:01        0.09
  HS02004862           JUNCTION     0.02     0.11     9.49     0  03:01        0.11
  HS02004856           JUNCTION     0.08     0.15     9.58     0  03:01        0.15
  HS02004852           JUNCTION     0.01     0.07     9.59     0  03:02        0.07
  HS02004848           JUNCTION     0.01     0.07     9.67     0  03:01        0.07
  HS02004842           JUNCTION     0.34     0.40     9.67     0  03:01        0.40
  HS02004837           JUNCTION     0.03     0.09     9.67     0  03:01        0.09
  HS02004830           JUNCTION     0.04     0.10     9.57     0  03:02        0.10
  HS02004824           JUNCTION     0.02     0.13     9.53     0  03:02        0.13
  HS02004817           JUNCTION     0.44     0.69     9.54     0  03:02        0.69
  HS02004807           JUNCTION     0.13     0.36     9.53     0  03:02        0.36
  HS02004802           JUNCTION     0.16     0.39     9.52     0  03:02        0.39
  HS02004799           JUNCTION     0.12     0.46     9.68     0  03:01        0.46
  HS02004792           JUNCTION     0.03     0.22     9.74     0  03:01        0.21
  HS02004788           JUNCTION     0.03     0.16    10.05     0  03:02        0.16
  HS02004785           JUNCTION     0.05     0.25    10.15     0  03:02        0.25
  HS02004777           JUNCTION     0.15     0.39    10.19     0  03:01        0.39
  HS02004770           JUNCTION     0.12     0.37    10.20     0  03:01        0.36
  HS02004480           JUNCTION     0.08     0.38     9.62     0  03:01        0.38
  HS02004479           JUNCTION     0.12     0.42     9.62     0  03:01        0.42
  HS02004478           JUNCTION     0.06     0.28     9.50     0  03:01        0.28
  YS02001745           JUNCTION     0.75     0.95     8.47     0  03:01        0.95
  YS02001748           JUNCTION     1.15     1.56     8.64     0  02:34        1.38
  YS02001751           JUNCTION     1.33     1.58     8.46     0  03:01        1.58
  YS02001754           JUNCTION     1.59     1.84     8.44     0  03:12        1.83
  YS02001762           JUNCTION     1.79     2.05     8.45     0  03:01        2.04
  YS02001765           JUNCTION     1.74     2.00     8.45     0  03:01        1.98
  YS02001767           JUNCTION     1.70     1.96     8.44     0  03:01        1.94
  YS02001770           JUNCTION     1.70     1.94     8.43     0  03:01        1.93
  YS02001774           JUNCTION     1.77     2.00     8.42     0  03:01        1.99
  YS02001779           JUNCTION     1.51     1.68     8.37     0  02:40        1.68
  YS02001882           JUNCTION     0.55     1.64     8.35     0  03:00        1.63
  YS02001884           JUNCTION     0.65     1.74     8.35     0  03:01        1.73
  YS02001759           JUNCTION     1.82     2.08     8.45     0  03:01        2.07
  YS02001887           JUNCTION     0.72     1.82     8.35     0  02:59        1.80
  YS02001890           JUNCTION     0.75     1.81     8.32     0  02:48        1.81
  YS02001898           JUNCTION     0.52     1.56     8.30     0  03:01        1.56
  YS02001901           JUNCTION     0.64     1.68     8.29     0  03:01        1.67
  YS02001904           JUNCTION     0.62     1.64     8.27     0  03:07        1.63
  YS02001907           JUNCTION     0.95     1.96     8.25     0  02:48        1.96
  YS02001910           JUNCTION     0.74     1.79     8.30     0  02:49        1.79
  YS02001915           JUNCTION     0.54     1.61     8.33     0  02:49        1.59
  YS02001918           JUNCTION     0.29     1.30     8.36     0  02:49        1.30
  YS02001619           JUNCTION     1.29     1.52     8.45     0  02:35        1.48
  YS02001629           JUNCTION     1.65     1.85     8.40     0  02:35        1.84
  YS02001641           JUNCTION     1.75     1.93     8.37     0  02:58        1.93
  YS02001644           JUNCTION     1.75     1.92     8.35     0  02:39        1.92
  YS02001652           JUNCTION     1.60     2.03     8.63     0  04:31        1.91
  YS02001655           JUNCTION     1.36     1.97     8.82     0  04:31        1.75
  YS02001920           JUNCTION     0.39     1.38     8.39     0  02:49        1.38
  YS02001923           JUNCTION     0.23     1.15     8.41     0  02:49        1.14
  YS02001926           JUNCTION     0.28     0.95     8.40     0  02:50        0.94
  YS02001929           JUNCTION     0.16     0.71     8.40     0  02:50        0.70
  YS02001658           JUNCTION     1.09     1.86     9.00     0  04:31        1.56
  YS02001661           JUNCTION     0.85     1.91     9.31     0  04:14        1.36
  YS02001664           JUNCTION     0.38     0.57     8.50     0  04:18        0.56
  YS02001622           JUNCTION     1.32     1.53     8.43     0  02:35        1.50
  YS02001633           JUNCTION     1.74     1.95     8.40     0  02:39        1.94
  YS02001649           JUNCTION     1.80     2.05     8.44     0  02:42        2.04
  YS02001757           JUNCTION     1.92     2.17     8.43     0  02:56        2.17
  YS02001895           JUNCTION     0.51     1.57     8.31     0  02:56        1.56
  YS02001625           JUNCTION     1.60     1.78     8.38     0  02:33        1.78
  YS02163301           JUNCTION     1.68     1.88     8.40     0  02:39        1.87
  YS02163601           JUNCTION     1.79     1.99     8.39     0  06:52        1.98
  YS02164001           JUNCTION     1.73     1.92     8.38     0  06:52        1.91
  YS02001647           JUNCTION     1.58     1.80     8.41     0  02:47        1.79
  YSB1154              JUNCTION     0.26     0.57     9.62     0  03:01        0.57
  YSB6556              JUNCTION     0.15     0.45     9.62     0  03:02        0.45
  YSB1174              JUNCTION     0.21     0.52     9.62     0  03:01        0.51
  YSB1171              JUNCTION     0.41     0.72     9.62     0  03:01        0.72
  YS02006553           JUNCTION     0.95     1.97     8.25     0  03:00        1.97
  YS02006561           JUNCTION     0.31     1.08     7.74     0  02:59        1.07
  YS02006556           JUNCTION     0.92     1.93     8.25     0  03:00        1.93
  YS02006558           JUNCTION     0.96     1.98     8.24     0  03:00        1.98
  YS02001783           JUNCTION     0.52     1.46     7.60     0  03:00        1.45
  YS02001784           JUNCTION     0.54     1.40     7.47     0  03:00        1.39
  YS02001786           JUNCTION     0.48     1.68     7.71     0  02:26        1.23
  YS02001788           JUNCTION     0.40     1.54     7.52     0  02:26        1.10
  YS02001790           JUNCTION     0.51     1.96     7.60     0  06:31        1.25
  YS02001791           JUNCTION     0.47     1.50     6.97     0  02:26        1.23
  YS02001793           JUNCTION     0.64     1.94     6.77     0  02:26        1.79
  WSC                  OUTFALL      0.36     0.48     1.15     0  03:07        0.48
  JK-storage           STORAGE      2.64     5.80     6.60     0  02:25        5.80
  CC-storage           STORAGE      1.18     1.43     8.43     0  03:20        1.43
  XR-storage           STORAGE      6.79     7.72     5.72     0  02:55        7.72
  
  
  *******************
  Node Inflow Summary
  *******************
  
  -------------------------------------------------------------------------------------------------
                                  Maximum  Maximum                  Lateral       Total        Flow
                                  Lateral    Total  Time of Max      Inflow      Inflow     Balance
                                   Inflow   Inflow   Occurrence      Volume      Volume       Error
  Node                 Type           LPS      LPS  days hr:min    10^6 ltr    10^6 ltr     Percent
  -------------------------------------------------------------------------------------------------
  WS02001211           JUNCTION      7.35   390.79     0  03:21       0.207        9.97       0.414
  WS02001212           JUNCTION      0.00   394.18     0  03:21           0        9.93       0.220
  WS02001213           JUNCTION      0.00   397.09     0  03:21           0        9.91       0.325
  WS02003069           JUNCTION      0.32  1332.17     0  03:05     0.00902        20.7       0.183
  WS02003072           JUNCTION      0.00  1331.84     0  03:05           0        20.6       0.218
  WS02003073           JUNCTION      1.82  1333.79     0  03:06      0.0514        20.6       0.256
  WS02003060           JUNCTION     16.53  1332.01     0  03:04       0.466        20.7       0.172
  WS02003066           JUNCTION      0.00   938.52     0  03:04           0        10.4       0.048
  WS02003059           JUNCTION      0.00   400.98     0  03:21           0        9.88       0.417
  WS02003067           JUNCTION      0.00   938.04     0  03:04           0        10.4       0.097
  WS02004401           JUNCTION      0.00   939.66     0  03:02           0        10.7       0.204
  WS02004402           JUNCTION      0.00   940.06     0  03:02           0        10.6       0.192
  WS02004403           JUNCTION      0.00   939.91     0  03:02           0        10.6       0.175
  WS02004404           JUNCTION      0.16   940.23     0  03:02     0.00457        10.6       0.130
  WS02004406           JUNCTION      0.00   939.99     0  03:02           0        10.6       0.319
  WS02004409           JUNCTION      0.00   939.42     0  03:03           0        10.5       0.172
  WS02004410           JUNCTION      0.00   938.25     0  03:03           0        10.5       0.195
  WS02004411           JUNCTION      0.00   937.81     0  03:03           0        10.5       0.199
  WS02004412           JUNCTION      0.00   937.48     0  03:03           0        10.5       0.214
  WS02004413           JUNCTION      0.00   937.95     0  03:04           0        10.4       0.314
  WS02004405           JUNCTION      0.04   941.27     0  03:02     0.00107        10.6       0.198
  WS02006109           JUNCTION      1.23   915.30     0  03:02      0.0347        10.7       0.199
  WS02006110           JUNCTION      0.00   915.26     0  03:02           0        10.7       0.176
  WS02006111           JUNCTION      0.00   915.64     0  03:02           0        10.6       0.034
  WS02006112           JUNCTION     30.67   939.36     0  03:02      0.0853        10.7       0.253
  WS02006113           JUNCTION      0.00   915.24     0  03:02           0        10.7       0.090
  WS02006115           JUNCTION      0.00   939.20     0  03:02           0        10.7       0.195
  WS02006116           JUNCTION      0.00   939.70     0  03:02           0        10.7       0.188
  WS02006230           JUNCTION     10.28   532.33     0  05:52        0.29        8.27       0.162
  WS02006231           JUNCTION      0.00   521.85     0  05:50           0        7.99       0.093
  WS02006232           JUNCTION      0.00   521.76     0  05:50           0           8       0.196
  WS02006234           JUNCTION      0.00   522.25     0  05:52           0        8.01       0.084
  WS02006235           JUNCTION      0.00   523.29     0  05:52           0        8.05       0.123
  WS02006238           JUNCTION      0.00   401.24     0  04:50           0        4.41       0.179
  WS02006240           JUNCTION      0.00   401.42     0  04:50           0         4.4       0.245
  WS02006242           JUNCTION      0.00   401.05     0  04:50           0         4.4       0.302
  WS02006243           JUNCTION      0.00   401.13     0  04:50           0         4.4       0.167
  WS02006245           JUNCTION      0.00   401.34     0  04:50           0        4.41       0.195
  WS02006247           JUNCTION      0.00   401.35     0  04:50           0        4.42       0.153
  WS02006248           JUNCTION      0.00   401.01     0  04:49           0        4.42       0.104
  WS02006249           JUNCTION      0.00   414.42     0  05:09           0        4.72       0.181
  WS02006239           JUNCTION      0.00   401.30     0  04:50           0         4.4       0.229
  WS02006251           JUNCTION      0.08   408.46     0  04:00     0.00217         4.8       0.187
  WS02006252           JUNCTION      0.00   400.00     0  04:00           0        4.26       0.012
  WS02006253           JUNCTION      3.75   143.68     0  03:01      0.0103        0.54       0.647
  WS02006256           JUNCTION      0.00   983.00     0  00:00           0        10.7      -0.008
  WS02004138           JUNCTION      0.00   380.00     0  00:00           0         9.8       0.061
  WS02004139           JUNCTION      0.32   396.51     0  00:00     0.00905        9.81       0.470
  WS02004407           JUNCTION      0.00   939.80     0  03:02           0        10.5       0.074
  WS02006228           JUNCTION      0.00   914.07     0  03:02           0        10.7       0.151
  WS02006229           JUNCTION      0.00   917.87     0  03:01           0        10.7       0.111
  WS02006280           JUNCTION      0.00   680.03     0  03:02           0        2.43       0.009
  WS02006284           JUNCTION      0.10   678.90     0  03:02      0.0027        2.43       0.047
  WS02006287           JUNCTION      0.00   677.54     0  03:02           0        2.43       0.029
  WSF200               JUNCTION      0.00   938.66     0  03:04           0        10.4       0.046
  HS02004901           JUNCTION     37.63    37.63     0  03:01       0.103       0.103       1.739
  HS02004881           JUNCTION     14.26   140.51     0  03:01      0.0422       0.463       0.092
  HS02004876           JUNCTION     25.66   127.62     0  03:01      0.0814       0.422       0.132
  HS02004870           JUNCTION     26.26   103.58     0  03:01      0.0799        0.34       0.034
  HS02004862           JUNCTION     25.49    79.36     0  03:01      0.0888       0.261       0.068
  HS02004856           JUNCTION     19.64    55.42     0  03:01      0.0601       0.173       0.840
  HS02004852           JUNCTION      0.00    37.84     0  03:01           0       0.113       0.053
  HS02004848           JUNCTION     55.75    55.75     0  03:01       0.197       0.197       0.027
  HS02004842           JUNCTION      0.00    16.84     0  03:01           0       0.097      15.491
  HS02004837           JUNCTION     50.35    65.70     0  03:01       0.318       0.402       0.204
  HS02004830           JUNCTION      0.15    64.78     0  03:01     0.00423       0.392       0.316
  HS02004824           JUNCTION     65.57   128.45     0  03:01       0.251       0.642       0.085
  HS02004817           JUNCTION      0.60   124.45     0  03:01      0.0169       0.658       2.599
  HS02004807           JUNCTION     48.45   165.78     0  03:01       0.147       0.788       0.554
  HS02004802           JUNCTION      0.00   165.32     0  03:04           0       0.785       0.508
  HS02004799           JUNCTION     38.67   445.96     0  03:01       0.119        1.42       0.191
  HS02004792           JUNCTION    184.82   411.89     0  03:01        0.54         1.3       0.032
  HS02004788           JUNCTION     58.68   233.42     0  03:02       0.219       0.758       0.052
  HS02004785           JUNCTION      0.15   182.17     0  03:01     0.00423        0.54       0.093
  HS02004777           JUNCTION      0.03   184.97     0  03:01    0.000846       0.541       0.971
  HS02004770           JUNCTION    154.22   188.96     0  03:01       0.441       0.542       0.576
  HS02004480           JUNCTION      0.00   517.12     0  03:01           0        1.66       0.071
  HS02004479           JUNCTION      0.00    75.44     0  03:02           0       0.258       0.286
  HS02004478           JUNCTION      0.00   676.97     0  03:02           0        2.43       0.012
  YS02001745           JUNCTION    438.14   438.14     0  03:01        3.01        3.02       0.362
  YS02001748           JUNCTION      0.04   553.29     0  02:33     0.00127        3.01       0.732
  YS02001751           JUNCTION      0.01   444.19     0  03:01     0.00031        2.98       0.797
  YS02001754           JUNCTION      0.26   443.06     0  03:01     0.00733        2.96       0.838
  YS02001762           JUNCTION      0.00   316.71     0  02:43           0        2.16       0.998
  YS02001765           JUNCTION      0.00   316.29     0  02:43           0        2.16       1.139
  YS02001767           JUNCTION      0.54   316.72     0  02:43      0.0151        2.19       1.670
  YS02001770           JUNCTION    552.50   674.28     0  03:02        3.37        3.99       0.796
  YS02001774           JUNCTION      0.00   674.96     0  03:02           0        2.41       1.064
  YS02001779           JUNCTION      0.01   674.41     0  03:02    0.000141        2.38       0.664
  YS02001882           JUNCTION      0.00    16.19     0  02:28           0      0.0277       8.349
  YS02001884           JUNCTION      0.00    28.25     0  02:37           0      0.0656      10.180
  YS02001759           JUNCTION    536.49   622.34     0  02:43        3.11        4.62       0.495
  YS02001887           JUNCTION    679.97   679.97     0  03:01        3.56         3.6       0.236
  YS02001890           JUNCTION      0.00   679.94     0  03:01           0        3.55       0.258
  YS02001898           JUNCTION      0.00   519.05     0  02:58           0        3.45       0.079
  YS02001901           JUNCTION      0.00   518.71     0  02:58           0        3.45       0.202
  YS02001904           JUNCTION      0.00   518.80     0  02:59           0        3.44       0.179
  YS02001907           JUNCTION      0.00  1096.63     0  03:02           0        7.77       0.314
  YS02001910           JUNCTION      0.00   580.71     0  03:02           0        4.34       0.266
  YS02001915           JUNCTION    389.26   579.91     0  03:02        2.52        4.35       0.138
  YS02001918           JUNCTION      0.00   265.41     0  02:50           0        1.84       0.081
  YS02001619           JUNCTION    380.66   380.66     0  03:01        2.51        2.51       0.486
  YS02001629           JUNCTION      0.00   196.70     0  02:39           0        1.59       1.846
  YS02001641           JUNCTION      0.00   413.34     0  02:39           0        4.45       0.483
  YS02001644           JUNCTION    416.76  1525.83     0  03:01         2.9        10.5       0.247
  YS02001652           JUNCTION      0.00   500.52     0  03:01           0        2.63       0.911
  YS02001655           JUNCTION      0.15   499.42     0  03:01     0.00434        2.65       0.913
  YS02001920           JUNCTION      2.87   265.28     0  02:50      0.0809        1.84       0.155
  YS02001923           JUNCTION      0.04   227.16     0  02:51     0.00106        1.76       0.055
  YS02001926           JUNCTION      0.05   200.22     0  02:50     0.00147        1.75       0.189
  YS02001929           JUNCTION    189.18   189.18     0  03:01        1.75        1.75       0.037
  YS02001658           JUNCTION      0.00   594.55     0  02:29           0        2.68       0.815
  YS02001661           JUNCTION      0.00   666.27     0  02:42           0        3.07      -0.046
  YS02001664           JUNCTION    492.63   492.63     0  03:01        2.67        3.06       0.200
  YS02001622           JUNCTION      0.00   380.37     0  03:00           0         2.5       1.291
  YS02001633           JUNCTION    423.29   423.29     0  03:01        2.99        4.52       0.721
  YS02001649           JUNCTION      0.00   876.01     0  02:39           0        6.01       0.625
  YS02001757           JUNCTION      0.00  1679.46     0  02:40           0        9.67       0.962
  YS02001895           JUNCTION      0.00   519.80     0  02:59           0        3.45       0.148
  YS02001625           JUNCTION      0.00   407.60     0  03:01           0        2.47       1.585
  YS02163301           JUNCTION      0.00   206.04     0  02:33           0        1.57       1.558
  YS02163601           JUNCTION      0.11   413.41     0  02:39      0.0031        4.48       0.681
  YS02164001           JUNCTION      0.00   413.76     0  02:39           0        4.46       0.460
  YS02001647           JUNCTION      0.00   731.04     0  03:20           0        5.06       0.563
  YSB1154              JUNCTION     44.76    44.76     0  03:01       0.144       0.144       1.015
  YSB6556              JUNCTION      0.00    43.26     0  03:01           0       0.145       0.870
  YSB1174              JUNCTION     38.10    38.10     0  03:01       0.106       0.107       1.221
  YSB1171              JUNCTION      0.00    76.91     0  03:01           0       0.257       2.525
  YS02006553           JUNCTION      0.00   709.29     0  03:46           0        6.75       0.234
  YS02006561           JUNCTION      0.00  1044.07     0  02:49           0        9.98       0.006
  YS02006556           JUNCTION      0.00   709.43     0  03:46           0        6.76       0.166
  YS02006558           JUNCTION    587.14  1045.19     0  02:49        3.28          10       0.052
  YS02001783           JUNCTION      0.00  1043.86     0  02:49           0        9.98       0.023
  YS02001784           JUNCTION      1.06  1044.42     0  02:49      0.0299          10       0.035
  YS02001786           JUNCTION      0.06  1044.07     0  02:49     0.00159          10       0.034
  YS02001788           JUNCTION      0.07  1044.28     0  02:49       0.002          10       0.021
  YS02001790           JUNCTION      0.15  1044.38     0  02:49     0.00437          10       0.012
  YS02001791           JUNCTION      0.00  1044.39     0  02:49           0          10       0.012
  YS02001793           JUNCTION      0.00  1044.59     0  02:49           0          10      -0.038
  WSC                  OUTFALL       0.00  1333.98     0  03:07           0        20.6       0.000
  JK-storage           STORAGE       0.00  1081.52     0  02:20           0        10.2     -10.239
  CC-storage           STORAGE       0.00  1680.26     0  02:41           0           8       0.804
  XR-storage           STORAGE    1024.87  1024.87     0  03:01        12.7        13.3      -0.002
  
  
  **********************
  Node Surcharge Summary
  **********************
  
  Surcharging occurs when water rises above the top of the highest conduit.
  ---------------------------------------------------------------------
                                               Max. Height   Min. Depth
                                   Hours       Above Crown    Below Rim
  Node                 Type      Surcharged         Meters       Meters
  ---------------------------------------------------------------------
  WS02004401           JUNCTION        0.50          0.236        1.424
  WS02004402           JUNCTION        0.54          0.223        1.517
  WS02004403           JUNCTION        0.54          0.200        1.830
  WS02004404           JUNCTION        0.79          0.245        2.535
  WS02004406           JUNCTION        0.68          0.164        2.286
  WS02004413           JUNCTION        0.18          0.023        2.177
  WS02004405           JUNCTION        0.74          0.219        2.581
  WS02006109           JUNCTION        4.46          0.834        0.986
  WS02006110           JUNCTION        2.01          0.540        1.310
  WS02006111           JUNCTION        0.13          0.074        1.796
  WS02006112           JUNCTION        2.57          0.558        1.122
  WS02006113           JUNCTION        0.15          0.123        1.807
  WS02006115           JUNCTION        0.35          0.207        2.043
  WS02006116           JUNCTION        0.38          0.201        2.089
  WS02006230           JUNCTION        1.50          0.798        0.772
  WS02006231           JUNCTION        1.96          0.813        0.717
  WS02006232           JUNCTION        4.34          0.923        0.557
  WS02006234           JUNCTION        3.15          0.805        0.435
  WS02006235           JUNCTION        3.66          0.831        0.459
  WS02006238           JUNCTION        3.84          0.836        0.594
  WS02006240           JUNCTION        2.88          0.694        0.696
  WS02006242           JUNCTION        3.14          0.698        0.122
  WS02006243           JUNCTION        2.16          0.566        0.204
  WS02006245           JUNCTION        1.94          0.502        0.348
  WS02006247           JUNCTION        1.98          0.487        0.273
  WS02006248           JUNCTION        1.75          0.380        0.000
  WS02006249           JUNCTION        1.82          0.390        0.000
  WS02006239           JUNCTION        3.22          0.748        0.542
  WS02006251           JUNCTION        0.88          0.229        0.951
  WS02006252           JUNCTION        2.59          0.401        0.699
  WS02006253           JUNCTION        0.93          0.279        2.201
  WS02006256           JUNCTION        6.67          2.050        0.000
  WS02006228           JUNCTION        4.39          1.000        1.200
  YS02001748           JUNCTION        5.22          0.481        0.709
  YS02001751           JUNCTION        5.38          0.578        0.622
  YS02001754           JUNCTION        5.57          0.786        0.364
  YS02001762           JUNCTION        5.75          1.051        0.099
  YS02001765           JUNCTION        5.72          1.000        0.100
  YS02001767           JUNCTION        5.69          0.955        0.075
  YS02001770           JUNCTION        5.68          0.908        0.012
  YS02001774           JUNCTION        5.74          0.995        0.055
  YS02001779           JUNCTION        5.56          0.680        0.000
  YS02001882           JUNCTION        1.12          0.638        0.192
  YS02001884           JUNCTION        1.15          0.675        0.195
  YS02001759           JUNCTION        5.78          1.084        0.126
  YS02001887           JUNCTION        1.22          0.766        0.184
  YS02001890           JUNCTION        1.25          0.760        0.000
  YS02001898           JUNCTION        1.07          0.532        0.208
  YS02001901           JUNCTION        1.19          0.679        0.191
  YS02001904           JUNCTION        1.16          0.638        0.212
  YS02001907           JUNCTION        1.91          0.950        0.000
  YS02001910           JUNCTION        1.29          0.791        0.309
  YS02001915           JUNCTION        1.09          0.609        0.391
  YS02001918           JUNCTION        0.88          0.297        0.513
  YS02001619           JUNCTION        5.37          0.520        0.090
  YS02001629           JUNCTION        5.38          0.470        0.000
  YS02001641           JUNCTION        5.72          0.934        0.166
  YS02001644           JUNCTION        5.73          0.920        0.000
  YS02001652           JUNCTION        5.61          1.003        0.127
  YS02001655           JUNCTION        5.40          0.967        0.233
  YS02001920           JUNCTION        0.91          0.381        0.759
  YS02001658           JUNCTION        5.25          0.860        0.440
  YS02001661           JUNCTION        0.12          0.839        0.551
  YS02001622           JUNCTION        5.41          0.529        0.091
  YS02001633           JUNCTION        5.71          0.926        0.134
  YS02001649           JUNCTION        5.76          1.050        0.000
  YS02001757           JUNCTION        5.86          1.174        0.036
  YS02001895           JUNCTION        1.08          0.567        0.183
  YS02001625           JUNCTION        5.64          0.780        0.000
  YS02163301           JUNCTION        5.68          0.883        0.147
  YS02163601           JUNCTION        5.75          0.990        0.090
  YS02164001           JUNCTION        5.72          0.922        0.178
  YS02001647           JUNCTION        5.62          0.802        0.098
  YS02006553           JUNCTION        2.00          0.970        0.220
  YS02006561           JUNCTION        0.91          0.278        0.872
  YS02006556           JUNCTION        1.51          0.895        0.455
  YS02006558           JUNCTION        1.47          0.878        0.522
  YS02001783           JUNCTION        1.44          0.660        0.940
  YS02001784           JUNCTION        1.42          0.600        0.890
  YS02001786           JUNCTION        1.35          0.879        0.551
  YS02001788           JUNCTION        1.17          0.744        0.736
  YS02001790           JUNCTION        1.97          1.157        0.000
  YS02001791           JUNCTION        2.06          0.699        1.221
  YS02001793           JUNCTION        2.33          0.939        1.661
  
  
  *********************
  Node Flooding Summary
  *********************
  
  Flooding refers to all water that overflows a node, whether it ponds or not.
  --------------------------------------------------------------------------
                                                             Total   Maximum
                                 Maximum   Time of Max       Flood    Ponded
                        Hours       Rate    Occurrence      Volume     Depth
  Node                 Flooded       LPS   days hr:min    10^6 ltr    Meters
  --------------------------------------------------------------------------
  WS02006248              0.07     14.99      0  03:03       0.002     0.000
  WS02006249              0.84    258.62      0  03:02       0.290     0.000
  WS02006256              4.42    978.40      0  00:00       7.027     0.000
  YS02001779              2.70    674.27      0  03:02       2.357     0.000
  YS02001890              0.34    163.75      0  03:01       0.085     0.000
  YS02001907              0.75    686.28      0  03:01       1.006     0.000
  YS02001629              0.01      5.03      0  02:35       0.000     0.000
  YS02001644              4.67   1525.62      0  03:01       8.640     0.000
  YS02001649              0.02     28.03      0  02:45       0.001     0.000
  YS02001625              1.42    407.47      0  03:01       0.854     0.000
  YS02001790              0.01     76.86      0  06:31       0.000     0.000
  JK-storage              0.58    448.06      0  04:49       0.560     0.000
  XR-storage              3.52    644.66      0  03:01       2.729     0.000
  
  
  **********************
  Storage Volume Summary
  **********************
  
  --------------------------------------------------------------------------------------------------
                         Average     Avg  Evap Exfil       Maximum     Max    Time of Max    Maximum
                          Volume    Pcnt  Pcnt  Pcnt        Volume    Pcnt     Occurrence    Outflow
  Storage Unit           1000 m3    Full  Loss  Loss       1000 m3    Full    days hr:min        LPS
  --------------------------------------------------------------------------------------------------
  JK-storage               0.133      46     0     0         0.291     100       0  02:25     983.00
  CC-storage               3.277      21     0     0         3.995      25       0  03:20     400.00
  XR-storage               0.815      88     0     0         0.926     100       0  02:55     380.00
  
  
  ***********************
  Outfall Loading Summary
  ***********************
  
  ---------------------------------------------------------------------------------------------------------------------------------
                         Flow       Avg       Max       Total         Total         Total         Total         Total         Total
                         Freq      Flow      Flow      Volume           COD            SS            TN            TP         NH4-N
  Outfall Node           Pcnt       LPS       LPS    10^6 ltr            kg            kg            kg            kg            kg
  ---------------------------------------------------------------------------------------------------------------------------------
  WSC                   99.98    829.82   1333.98      20.583      2436.425      4220.915       149.309        17.429        89.990
  ---------------------------------------------------------------------------------------------------------------------------------
  System                99.98    829.82   1333.98      20.583      2436.425      4220.915       149.309        17.429        89.990
  
  
  ********************
  Link Flow Summary
  ********************
  
  -----------------------------------------------------------------------------
                                 Maximum  Time of Max   Maximum    Max/    Max/
                                  |Flow|   Occurrence   |Veloc|    Full    Full
  Link                 Type          LPS  days hr:min     m/sec    Flow   Depth
  -----------------------------------------------------------------------------
  WS02003066WSF200     CONDUIT    938.66     0  03:04      3.00    0.16    0.32
  WS02006287WS02006284 CONDUIT    678.80     0  03:02      2.38    0.31    0.39
  WS02006284WS02006280 CONDUIT    680.03     0  03:02      2.62    0.28    0.37
  WS02006280WS02006229 CONDUIT    680.10     0  03:02      3.85    0.15    0.50
  WS02006229WS02006228 CONDUIT    914.07     0  03:02      1.82    3.03    1.00
  WS02006256WS02006235 CONDUIT    288.60     0  00:00      4.23    3.05    1.00
  WS02006253WS02006251 CONDUIT    143.93     0  03:01      0.50    0.43    1.00
  WS02006252WS02006251 CONDUIT    401.13     0  05:10      3.19    1.47    1.00
  WS02006251WS02006249 CONDUIT    414.42     0  05:09      1.09    1.19    1.00
  WS02006249WS02006248 CONDUIT    401.01     0  04:49      1.13    2.20    1.00
  WS02006248WS02006247 CONDUIT    401.35     0  04:50      1.10    0.87    1.00
  WS02006247WS02006245 CONDUIT    401.34     0  04:50      1.07    3.18    1.00
  WS02006245WS02006243 CONDUIT    401.13     0  04:50      1.08    1.19    1.00
  WS02006243WS02006242 CONDUIT    401.05     0  04:50      1.04    0.86    1.00
  WS02006242WS02006240 CONDUIT    401.42     0  04:50      1.04    1.59    1.00
  WS02006240WS02006239 CONDUIT    401.30     0  04:50      1.04    1.26    1.00
  WS02006239WS02006238 CONDUIT    401.24     0  04:50      1.04    1.28    1.00
  WS02006238WS02006235 CONDUIT    402.40     0  04:50      1.46    0.90    1.00
  WS02006235WS02006234 CONDUIT    522.25     0  05:52      1.36    5.51    1.00
  WS02006234WS02006232 CONDUIT    521.76     0  05:50      1.39    1.06    1.00
  WS02006232WS02006231 CONDUIT    521.85     0  05:50      1.36    1.09    1.00
  WS02006231WS02006230 CONDUIT    522.05     0  05:52      1.36    7.92    1.00
  WS02006230WS02006229 CONDUIT    532.39     0  05:09      1.38   11.85    1.00
  WS02006228WS02006109 CONDUIT    914.07     0  03:02      1.82    3.99    1.00
  WS02006116WS02004401 CONDUIT    939.66     0  03:02      1.20    1.30    1.00
  WS02006115WS02006116 CONDUIT    939.70     0  03:02      1.20    1.21    1.00
  WS02006113WS02006111 CONDUIT    915.64     0  03:02      2.59    1.10    1.00
  WS02006112WS02006115 CONDUIT    939.20     0  03:02      1.20    0.55    1.00
  WS02006111WS02006112 CONDUIT    915.99     0  03:02      1.82    0.44    1.00
  WS02006110WS02006113 CONDUIT    915.24     0  03:02      1.82    0.83    1.00
  WS02006109WS02006110 CONDUIT    915.26     0  03:02      1.82    1.76    1.00
  WS02004411WS02004412 CONDUIT    937.48     0  03:03      1.24    1.33    0.92
  WS02004401WS02004402 CONDUIT    940.06     0  03:02      1.20    1.13    1.00
  WS02004413WS02003067 CONDUIT    938.04     0  03:04      1.55    0.40    0.72
  WS02004412WS02004413 CONDUIT    937.95     0  03:04      1.22    0.63    0.95
  WS02004410WS02004411 CONDUIT    937.81     0  03:03      1.23    1.28    0.94
  WS02004409WS02004410 CONDUIT    938.25     0  03:03      1.21    1.21    0.95
  WS02004407WS02004409 CONDUIT    939.42     0  03:03      1.67    0.33    0.68
  WS02004406WS02004407 CONDUIT    939.80     0  03:02      1.60    0.42    0.70
  WS02004405WS02004406 CONDUIT    939.99     0  03:02      1.20    1.85    1.00
  WS02004404WS02004405 CONDUIT    941.24     0  03:02      1.20    9.22    1.00
  WS02004403WS02004404 CONDUIT    940.07     0  03:02      1.20    0.68    1.00
  WS02004402WS02004403 CONDUIT    939.91     0  03:02      1.20    1.35    1.00
  WS02004139WS02001211 CONDUIT    383.44     0  03:21      0.90    0.48    0.64
  WS02004138WS02004139 CONDUIT    396.19     0  00:00      3.65    0.08    0.47
  WS02003067WS02003066 CONDUIT    938.52     0  03:04      1.65    0.30    0.50
  WS02001213WS02003059 CONDUIT    400.98     0  03:21      0.88    0.66    0.87
  WS02001212WS02001213 CONDUIT    397.09     0  03:21      1.32    0.61    0.56
  WS02001211WS02001212 CONDUIT    394.18     0  03:21      0.78    0.30    0.71
  WS02003072WS02003073 CONDUIT   1331.97     0  03:06      1.96    2.88    0.58
  WS02003069WS02003072 CONDUIT   1331.84     0  03:05      1.82    0.64    0.62
  WS02003060WS02003069 CONDUIT   1331.85     0  03:05      2.03    0.52    0.56
  WS02003059WS02003060 CONDUIT    406.33     0  03:20      0.95    0.27    0.77
  HS02004901HS02004770 CONDUIT     37.22     0  03:01      0.10    0.14    0.53
  HS02004876HS02004881 CONDUIT    127.62     0  03:01      1.21    1.36    0.15
  HS02004870HS02004876 CONDUIT    103.08     0  03:01      0.82    0.07    0.18
  HS02004842HS02004848 CONDUIT     16.84     0  03:01      0.07    0.01    0.33
  HS02004837HS02004842 CONDUIT     17.90     0  03:03      0.42    0.01    0.35
  HS02004830HS02004837 CONDUIT     64.63     0  03:01      0.67    0.06    0.14
  HS02004824HS02004830 CONDUIT     64.11     0  03:02      0.62    0.08    0.16
  HS02004817HS02004824 CONDUIT    123.85     0  03:01      0.31    0.06    0.58
  HS02004770HS02004777 CONDUIT    184.94     0  03:01      0.49    0.34    0.54
  HS02004799HS02004480 CONDUIT    444.28     0  03:01      1.07    0.56    0.60
  HS02004792HS02004799 CONDUIT    408.37     0  03:01      1.20    0.25    0.49
  HS02004788HS02004792 CONDUIT    232.93     0  03:02      1.28    0.15    0.26
  HS02004785HS02004788 CONDUIT    181.74     0  03:02      0.91    1.37    0.29
  HS02004777HS02004785 CONDUIT    182.02     0  03:01      0.57    0.22    0.45
  HS02004480HS02004478 CONDUIT    517.25     0  03:01      1.55    2.18    0.48
  HS02004479HS02004480 CONDUIT     77.29     0  03:02      0.30    0.07    0.57
  HS02004862HS02004870 CONDUIT     79.02     0  03:01      0.80    0.09    0.14
  HS02004848HS02004852 CONDUIT     37.84     0  03:01      0.53    0.04    0.10
  HS02004856HS02004862 CONDUIT     54.76     0  03:01      0.59    0.05    0.13
  HS02004852HS02004856 CONDUIT     37.75     0  03:02      0.34    0.04    0.16
  HS02004802HS02004478 CONDUIT    170.16     0  03:04      0.54    0.15    0.48
  HS02004478WS02006287 CONDUIT    677.54     0  03:02      2.11    0.19    0.36
  HS02004817HS02004807 CONDUIT    128.11     0  03:04      0.25    0.08    0.75
  HS02004807HS02004802 CONDUIT    165.32     0  03:04      0.46    0.32    0.53
  YS02001759YS02001757 CONDUIT    622.01     0  02:42      0.79    0.44    1.00
  YS02001762YS02001759 CONDUIT    315.88     0  02:43      0.40    0.36    1.00
  YS02001765YS02001762 CONDUIT    316.71     0  02:43      0.40    0.30    1.00
  YS02001770YS02001767 CONDUIT    316.19     0  02:43      0.40    1.25    1.00
  YS02001774YS02001770 CONDUIT    674.96     0  03:02      0.86    0.43    1.00
  YS02001779YS02001774 CONDUIT    674.41     0  03:02      0.86    0.34    1.00
  YS02001649YS02001757 CONDUIT    877.25     0  02:39      1.12    0.53    1.00
  YS02001767YS02001765 CONDUIT    316.29     0  02:43      0.40    0.40    1.00
  YS02006561YS02001783 CONDUIT   1043.86     0  02:49      2.14    0.54    1.00
  YS02001783YS02001784 CONDUIT   1043.36     0  02:49      2.08    1.44    1.00
  YS02001784YS02001785 CONDUIT   1044.02     0  02:49      2.08    2.43    1.00
  YS02001788YS02001790 CONDUIT   1044.23     0  02:49      2.44    0.77    1.00
  YS02001790YS02001791 CONDUIT   1044.39     0  02:49      2.90    1.14    1.00
  YS02001791YS02001793 CONDUIT   1044.59     0  02:49      5.76    0.45    1.00
  YS02001910YS02001907 CONDUIT    580.47     0  03:02      0.74    0.33    1.00
  YS02001786YS02001788 CONDUIT   1044.21     0  02:49      2.31    2.01    1.00
  YS02001915YS02001910 CONDUIT    580.71     0  03:02      0.74    0.29    1.00
  YS02001918YS02001915 CONDUIT    265.75     0  02:50      0.44    0.15    1.00
  YS02001923YS02001920 CONDUIT    262.41     0  02:50      0.75    0.12    1.00
  YS02001926YS02001923 CONDUIT    227.12     0  02:51      0.86    0.32    0.94
  YS02001929YS02001926 CONDUIT    200.16     0  02:50      0.92    0.10    0.83
  YS02001920YS02001918 CONDUIT    265.41     0  02:50      0.72    0.26    1.00
  YS02001629YS02163301 CONDUIT    206.04     0  02:33      0.26    0.25    1.00
  YS02001619YS02001622 CONDUIT    380.37     0  03:00      0.59    0.56    1.00
  YS02001622YS02001625 CONDUIT    381.13     0  03:01      0.49    0.20    1.00
  YS02001625YS02001629 CONDUIT    196.70     0  02:39      0.25    0.09    1.00
  YS02163301YS02001633 CONDUIT    208.31     0  02:33      0.27    0.20    1.00
  YS02163601YS02164001 CONDUIT    413.76     0  02:39      0.53    0.37    1.00
  YS02164001YS02001641 CONDUIT    413.34     0  02:39      0.53    0.56    1.00
  YS02001641YS02001644 CONDUIT    413.11     0  02:39      0.53    1.34    1.00
  YS02001647YS02001649 CONDUIT    731.04     0  03:20      0.93    0.39    1.00
  YS02006553YS02006556 CONDUIT    709.43     0  03:46      0.90    0.61    1.00
  YS02006556YS02006558 CONDUIT    709.65     0  03:46      0.90    0.56    1.00
  YSB6556YSB1171       CONDUIT     42.82     0  03:02      0.13    0.04    0.82
  YS02001907YS02006553 CONDUIT    709.29     0  03:46      0.79    0.83    1.00
  YS02006558YS02006561 CONDUIT   1044.07     0  02:49      3.69    2.31    1.00
  YS02001633YS02163601 CONDUIT    413.30     0  02:39      0.53    0.43    1.00
  YS02001644YS02001647 CONDUIT    730.60     0  03:20      0.93    0.43    1.00
  YS02001745YS02001748 CONDUIT    553.24     0  02:33      1.46    0.21    0.98
  YS02001748YS02001751 CONDUIT    444.17     0  03:01      1.03    0.22    1.00
  YS02001751YS02001754 CONDUIT    442.80     0  03:01      0.88    0.21    1.00
  YS02001754YS02001757 CONDUIT    443.23     0  03:01      0.56    0.18    1.00
  YS02001882YS02001884 CONDUIT     17.61     0  02:28      0.12    0.02    1.00
  YS02001884YS02001887 CONDUIT     28.25     0  02:37      0.08    0.04    1.00
  YS02001890YS02001895 CONDUIT    519.80     0  02:59      0.66    0.24    1.00
  YS02001895YS02001898 CONDUIT    519.05     0  02:58      0.66    0.90    1.00
  YS02001898YS02001901 CONDUIT    518.71     0  02:58      0.66    0.33    1.00
  YS02001901YS02001904 CONDUIT    518.80     0  02:59      0.66    0.80    1.00
  YS02001904YS02001907 CONDUIT    519.43     0  02:59      0.66    0.18    1.00
  YS02001887YS02001890 CONDUIT    679.94     0  03:01      0.87    1.16    1.00
  YS02001652YS02001649 CONDUIT    500.75     0  03:01      0.64    0.25    1.00
  YS02001655YS02001652 CONDUIT    500.52     0  03:01      0.94    0.24    1.00
  YS02001658YS02001655 CONDUIT    499.26     0  03:01      1.18    0.21    1.00
  YS02001661YS02001658 CONDUIT    594.55     0  02:29      1.52    0.23    1.00
  YS02001664YS02001661 CONDUIT    666.27     0  02:42      1.42    0.21    0.77
  YSB1154YSB6556       CONDUIT     43.26     0  03:01      0.18    0.08    0.73
  YSB1174YSB1171       CONDUIT     36.64     0  03:01      0.11    0.06    0.85
  YSB1171HS02004479    CONDUIT     75.44     0  03:02      0.54    0.05    0.68
  HS02004881HS02006253 CONDUIT    140.46     0  03:01      2.12    0.03    0.54
  YS02001793JiankangQianchi CONDUIT   1081.52     0  02:20     16.51    0.09    1.00
  YS02001757CaochengTiaoxuchi CONDUIT   1680.26     0  02:41      2.17    0.74    1.00
  WSF200WS02003060     CONDUIT    938.96     0  03:04      1.93    0.21    0.45
  1                    CONDUIT   1333.98     0  03:07      3.59    0.46    0.48
  CC-Pump-1            PUMP       200.00     0  03:00              1.00
  CC-Pump-2            PUMP       200.00     0  04:00              1.00
  JK-Pump-1            PUMP       300.00     0  00:00              1.00
  JK-Pump-2            PUMP       683.00     0  00:00              1.00
  XR-Pump-1            PUMP        95.00     0  00:00              1.00
  XR-Pump-2            PUMP        95.00     0  00:00              1.00
  XR-Pump-3            PUMP        95.00     0  00:00              1.00
  XR-Pump-4            PUMP        95.00     0  00:00              1.00
  
  
  ***************************
  Flow Classification Summary
  ***************************
  
  -------------------------------------------------------------------------------------
                      Adjusted    ---------- Fraction of Time in Flow Class ---------- 
                       /Actual         Up    Down  Sub   Sup   Up    Down  Norm  Inlet 
  Conduit               Length    Dry  Dry   Dry   Crit  Crit  Crit  Crit  Ltd   Ctrl  
  -------------------------------------------------------------------------------------
  WS02003066WSF200        1.00   0.01  0.05  0.00  0.00  0.94  0.00  0.00  0.43  0.00
  WS02006287WS02006284    1.00   0.02  0.01  0.00  0.66  0.30  0.00  0.00  0.65  0.00
  WS02006284WS02006280    1.00   0.03  0.00  0.00  0.00  0.00  0.00  0.97  0.00  0.00
  WS02006280WS02006229    1.00   0.03  0.00  0.00  0.01  0.02  0.00  0.94  0.01  0.00
  WS02006229WS02006228    1.00   0.00  0.00  0.00  1.00  0.00  0.00  0.00  0.00  0.00
  WS02006256WS02006235    1.00   0.00  0.00  0.00  1.00  0.00  0.00  0.00  0.00  0.00
  WS02006253WS02006251    1.00   0.01  0.01  0.00  0.97  0.00  0.00  0.00  0.00  0.00
  WS02006252WS02006251    1.00   0.16  0.00  0.00  0.10  0.00  0.74  0.00  0.00  0.00
  WS02006251WS02006249    1.00   0.00  0.00  0.00  1.00  0.00  0.00  0.00  0.23  0.00
  WS02006249WS02006248    1.00   0.00  0.01  0.00  0.92  0.00  0.08  0.00  0.00  0.00
  WS02006248WS02006247    1.00   0.01  0.00  0.00  0.98  0.00  0.00  0.01  0.12  0.00
  WS02006247WS02006245    1.00   0.01  0.00  0.00  0.97  0.00  0.00  0.02  0.00  0.00
  WS02006245WS02006243    1.00   0.00  0.00  0.00  0.96  0.00  0.00  0.04  0.01  0.00
  WS02006243WS02006242    1.00   0.00  0.00  0.00  1.00  0.00  0.00  0.00  0.22  0.00
  WS02006242WS02006240    1.00   0.00  0.00  0.00  1.00  0.00  0.00  0.00  0.00  0.00
  WS02006240WS02006239    1.00   0.00  0.00  0.00  0.95  0.00  0.00  0.05  0.01  0.00
  WS02006239WS02006238    1.00   0.00  0.00  0.00  1.00  0.00  0.00  0.00  0.14  0.00
  WS02006238WS02006235    1.00   0.00  0.00  0.00  1.00  0.00  0.00  0.00  0.00  0.00
  WS02006235WS02006234    1.00   0.00  0.00  0.00  0.96  0.00  0.04  0.00  0.00  0.00
  WS02006234WS02006232    1.00   0.00  0.00  0.00  1.00  0.00  0.00  0.00  0.11  0.00
  WS02006232WS02006231    1.00   0.00  0.00  0.00  1.00  0.00  0.00  0.00  0.00  0.00
  WS02006231WS02006230    1.00   0.00  0.00  0.00  0.86  0.00  0.14  0.00  0.00  0.00
  WS02006230WS02006229    1.00   0.00  0.00  0.00  1.00  0.00  0.00  0.00  0.01  0.00
  WS02006228WS02006109    1.00   0.00  0.00  0.00  1.00  0.00  0.00  0.00  0.00  0.00
  WS02006116WS02004401    1.00   0.01  0.00  0.00  0.99  0.00  0.00  0.00  0.01  0.00
  WS02006115WS02006116    1.00   0.01  0.00  0.00  0.98  0.00  0.00  0.02  0.01  0.00
  WS02006113WS02006111    1.00   0.01  0.00  0.00  0.04  0.96  0.00  0.00  0.13  0.00
  WS02006112WS02006115    1.00   0.01  0.00  0.00  0.99  0.00  0.00  0.00  0.00  0.00
  WS02006111WS02006112    1.00   0.01  0.00  0.00  0.99  0.00  0.00  0.00  0.89  0.00
  WS02006110WS02006113    1.00   0.00  0.00  0.00  0.99  0.00  0.00  0.00  0.00  0.00
  WS02006109WS02006110    1.00   0.00  0.00  0.00  1.00  0.00  0.00  0.00  0.00  0.00
  WS02004411WS02004412    1.00   0.05  0.00  0.00  0.95  0.00  0.00  0.00  0.00  0.00
  WS02004401WS02004402    1.00   0.01  0.00  0.00  0.99  0.00  0.00  0.00  0.01  0.00
  WS02004413WS02003067    1.00   0.05  0.01  0.00  0.00  0.00  0.94  0.00  0.00  0.00
  WS02004412WS02004413    1.00   0.05  0.00  0.00  0.95  0.00  0.00  0.00  0.00  0.00
  WS02004410WS02004411    1.00   0.05  0.00  0.00  0.95  0.00  0.00  0.00  0.00  0.00
  WS02004409WS02004410    1.00   0.05  0.00  0.00  0.95  0.00  0.00  0.00  0.00  0.00
  WS02004407WS02004409    1.00   0.05  0.00  0.00  0.95  0.00  0.00  0.00  0.80  0.00
  WS02004406WS02004407    1.00   0.00  0.05  0.00  0.95  0.00  0.00  0.00  0.00  0.00
  WS02004405WS02004406    1.00   0.00  0.00  0.00  1.00  0.00  0.00  0.00  0.02  0.00
  WS02004404WS02004405    1.00   0.00  0.00  0.00  1.00  0.00  0.00  0.00  0.00  0.00
  WS02004403WS02004404    1.00   0.00  0.01  0.00  0.99  0.00  0.00  0.00  0.02  0.00
  WS02004402WS02004403    1.00   0.01  0.00  0.00  0.99  0.00  0.00  0.00  0.00  0.00
  WS02004139WS02001211    1.00   0.00  0.00  0.00  1.00  0.00  0.00  0.00  0.00  0.00
  WS02004138WS02004139    1.00   0.00  0.00  0.00  1.00  0.00  0.00  0.00  1.00  0.00
  WS02003067WS02003066    1.00   0.06  0.00  0.00  0.94  0.00  0.00  0.00  0.00  0.00
  WS02001213WS02003059    1.00   0.00  0.00  0.00  1.00  0.00  0.00  0.00  0.00  0.00
  WS02001212WS02001213    1.00   0.00  0.00  0.00  0.92  0.00  0.08  0.00  0.00  0.00
  WS02001211WS02001212    1.00   0.00  0.00  0.00  1.00  0.00  0.00  0.00  0.00  0.00
  WS02003072WS02003073    1.00   0.00  0.00  0.00  0.00  0.00  0.00  1.00  0.00  0.00
  WS02003069WS02003072    1.00   0.00  0.00  0.00  1.00  0.00  0.00  0.00  0.10  0.00
  WS02003060WS02003069    1.00   0.00  0.00  0.00  0.99  0.01  0.00  0.00  0.08  0.00
  WS02003059WS02003060    1.00   0.00  0.00  0.00  1.00  0.00  0.00  0.00  0.00  0.00
  HS02004901HS02004770    1.00   0.03  0.00  0.00  0.97  0.00  0.00  0.00  0.00  0.00
  HS02004876HS02004881    1.00   0.01  0.00  0.00  0.92  0.07  0.00  0.00  0.00  0.00
  HS02004870HS02004876    1.00   0.00  0.00  0.00  1.00  0.00  0.00  0.00  0.95  0.00
  HS02004842HS02004848    1.00   0.00  0.03  0.00  0.97  0.00  0.00  0.00  0.54  0.00
  HS02004837HS02004842    1.00   0.00  0.00  0.00  1.00  0.00  0.00  0.00  0.11  0.00
  HS02004830HS02004837    1.00   0.00  0.00  0.00  1.00  0.00  0.00  0.00  0.99  0.00
  HS02004824HS02004830    1.00   0.00  0.00  0.00  1.00  0.00  0.00  0.00  0.01  0.00
  HS02004817HS02004824    1.00   0.00  0.00  0.00  1.00  0.00  0.00  0.00  0.97  0.00
  HS02004770HS02004777    1.00   0.00  0.03  0.00  0.97  0.00  0.00  0.00  0.03  0.00
  HS02004799HS02004480    1.00   0.00  0.01  0.00  0.96  0.00  0.03  0.00  0.00  0.00
  HS02004792HS02004799    1.00   0.00  0.00  0.00  1.00  0.00  0.00  0.00  0.98  0.00
  HS02004788HS02004792    1.00   0.00  0.00  0.00  1.00  0.00  0.00  0.00  0.98  0.00
  HS02004785HS02004788    1.00   0.00  0.00  0.00  1.00  0.00  0.00  0.00  0.00  0.00
  HS02004777HS02004785    1.00   0.00  0.00  0.00  1.00  0.00  0.00  0.00  0.12  0.00
  HS02004480HS02004478    1.00   0.03  0.00  0.00  0.73  0.00  0.00  0.24  0.00  0.00
  HS02004479HS02004480    1.00   0.01  0.00  0.00  0.99  0.00  0.00  0.00  0.12  0.00
  HS02004862HS02004870    1.00   0.00  0.00  0.00  1.00  0.00  0.00  0.00  0.04  0.00
  HS02004848HS02004852    1.00   0.03  0.00  0.00  0.97  0.00  0.00  0.00  0.64  0.00
  HS02004856HS02004862    1.00   0.00  0.04  0.00  0.96  0.00  0.00  0.00  0.83  0.00
  HS02004852HS02004856    1.00   0.03  0.00  0.00  0.97  0.00  0.00  0.00  0.81  0.00
  HS02004802HS02004478    1.00   0.03  0.00  0.00  0.97  0.00  0.00  0.00  0.02  0.00
  HS02004478WS02006287    1.00   0.04  0.00  0.00  0.79  0.17  0.00  0.00  0.65  0.00
  HS02004817HS02004807    1.00   0.00  0.03  0.00  0.97  0.00  0.00  0.00  0.01  0.00
  HS02004807HS02004802    1.00   0.03  0.00  0.00  0.97  0.00  0.00  0.00  0.00  0.00
  YS02001759YS02001757    1.00   0.00  0.00  0.00  1.00  0.00  0.00  0.00  0.16  0.00
  YS02001762YS02001759    1.00   0.00  0.00  0.00  1.00  0.00  0.00  0.00  0.03  0.00
  YS02001765YS02001762    1.00   0.00  0.00  0.00  1.00  0.00  0.00  0.00  0.14  0.00
  YS02001770YS02001767    1.00   0.00  0.00  0.00  1.00  0.00  0.00  0.00  0.00  0.00
  YS02001774YS02001770    1.00   0.00  0.03  0.00  0.97  0.00  0.00  0.00  0.03  0.00
  YS02001779YS02001774    1.00   0.00  0.00  0.00  1.00  0.00  0.00  0.00  0.19  0.00
  YS02001649YS02001757    1.00   0.00  0.00  0.00  1.00  0.00  0.00  0.00  0.16  0.00
  YS02001767YS02001765    1.00   0.00  0.00  0.00  1.00  0.00  0.00  0.00  0.00  0.00
  YS02006561YS02001783    1.00   0.04  0.00  0.00  0.32  0.64  0.00  0.00  0.46  0.00
  YS02001783YS02001784    1.00   0.00  0.05  0.00  0.95  0.00  0.00  0.00  0.00  0.00
  YS02001784YS02001785    1.00   0.00  0.00  0.00  1.00  0.00  0.00  0.00  0.18  0.00
  YS02001788YS02001790    1.00   0.00  0.00  0.00  0.36  0.64  0.00  0.00  0.38  0.00
  YS02001790YS02001791    1.00   0.00  0.00  0.00  0.34  0.66  0.00  0.00  0.47  0.00
  YS02001791YS02001793    1.00   0.00  0.00  0.00  0.38  0.62  0.00  0.00  0.02  0.00
  YS02001910YS02001907    1.00   0.00  0.00  0.00  0.99  0.00  0.00  0.01  0.12  0.00
  YS02001786YS02001788    1.00   0.00  0.00  0.00  0.35  0.65  0.00  0.00  0.00  0.00
  YS02001915YS02001910    1.00   0.00  0.00  0.00  0.99  0.01  0.00  0.00  0.16  0.00
  YS02001918YS02001915    1.00   0.00  0.00  0.00  0.99  0.00  0.00  0.00  0.54  0.00
  YS02001923YS02001920    1.00   0.00  0.00  0.00  1.00  0.00  0.00  0.00  0.82  0.00
  YS02001926YS02001923    1.00   0.00  0.02  0.00  0.14  0.00  0.84  0.00  0.00  0.00
  YS02001929YS02001926    1.00   0.00  0.03  0.00  0.97  0.00  0.00  0.00  0.74  0.00
  YS02001920YS02001918    1.00   0.00  0.00  0.00  1.00  0.00  0.00  0.00  0.00  0.00
  YS02001629YS02163301    1.00   0.04  0.00  0.00  0.96  0.00  0.00  0.00  0.00  0.00
  YS02001619YS02001622    1.00   0.03  0.00  0.00  0.97  0.00  0.00  0.00  0.00  0.00
  YS02001622YS02001625    1.00   0.03  0.00  0.00  0.97  0.00  0.00  0.00  0.05  0.00
  YS02001625YS02001629    1.00   0.03  0.01  0.00  0.94  0.00  0.02  0.00  0.00  0.00
  YS02163301YS02001633    1.00   0.00  0.04  0.00  0.96  0.00  0.00  0.00  0.00  0.00
  YS02163601YS02164001    1.00   0.00  0.02  0.00  0.98  0.00  0.00  0.00  0.00  0.00
  YS02164001YS02001641    1.00   0.00  0.02  0.00  0.98  0.00  0.00  0.00  0.06  0.00
  YS02001641YS02001644    1.00   0.00  0.00  0.00  1.00  0.00  0.00  0.00  0.00  0.00
  YS02001647YS02001649    1.00   0.00  0.04  0.00  0.96  0.00  0.00  0.00  0.01  0.00
  YS02006553YS02006556    1.00   0.00  0.00  0.00  1.00  0.00  0.00  0.00  0.03  0.00
  YS02006556YS02006558    1.00   0.00  0.00  0.00  1.00  0.00  0.00  0.00  0.00  0.00
  YSB6556YSB1171          1.00   0.01  0.02  0.00  0.97  0.00  0.00  0.00  0.00  0.00
  YS02001907YS02006553    1.00   0.00  0.01  0.00  0.99  0.00  0.00  0.00  0.00  0.00
  YS02006558YS02006561    1.00   0.04  0.00  0.00  0.15  0.81  0.00  0.00  0.46  0.00
  YS02001633YS02163601    1.00   0.00  0.00  0.00  1.00  0.00  0.00  0.00  0.15  0.00
  YS02001644YS02001647    1.00   0.00  0.04  0.00  0.96  0.00  0.00  0.00  0.00  0.00
  YS02001745YS02001748    1.00   0.00  0.00  0.00  0.92  0.00  0.00  0.08  0.04  0.00
  YS02001748YS02001751    1.00   0.00  0.00  0.00  0.97  0.03  0.00  0.00  0.15  0.00
  YS02001751YS02001754    1.00   0.00  0.00  0.00  0.95  0.00  0.00  0.05  0.02  0.00
  YS02001754YS02001757    1.00   0.00  0.00  0.00  1.00  0.00  0.00  0.00  0.18  0.00
  YS02001882YS02001884    1.00   0.04  0.00  0.00  0.96  0.00  0.00  0.00  0.00  0.00
  YS02001884YS02001887    1.00   0.02  0.01  0.00  0.97  0.00  0.00  0.00  0.00  0.00
  YS02001890YS02001895    1.00   0.00  0.04  0.00  0.96  0.00  0.00  0.00  0.00  0.00
  YS02001895YS02001898    1.00   0.04  0.00  0.00  0.95  0.00  0.01  0.00  0.00  0.00
  YS02001898YS02001901    1.00   0.04  0.00  0.00  0.96  0.00  0.00  0.00  0.01  0.00
  YS02001901YS02001904    1.00   0.04  0.00  0.00  0.96  0.00  0.00  0.00  0.00  0.00
  YS02001904YS02001907    1.00   0.00  0.04  0.00  0.96  0.00  0.00  0.00  0.00  0.00
  YS02001887YS02001890    1.00   0.00  0.00  0.00  0.99  0.00  0.01  0.00  0.00  0.00
  YS02001652YS02001649    1.00   0.00  0.00  0.00  1.00  0.00  0.00  0.00  0.17  0.00
  YS02001655YS02001652    1.00   0.00  0.00  0.00  0.95  0.00  0.00  0.05  0.02  0.00
  YS02001658YS02001655    1.00   0.00  0.03  0.00  0.94  0.03  0.00  0.00  0.10  0.00
  YS02001661YS02001658    1.00   0.03  0.00  0.00  0.92  0.05  0.00  0.00  0.11  0.00
  YS02001664YS02001661    1.00   0.03  0.00  0.00  0.93  0.04  0.00  0.00  0.20  0.00
  YSB1154YSB6556          1.00   0.03  0.00  0.00  0.97  0.00  0.00  0.00  0.02  0.00
  YSB1174YSB1171          1.00   0.01  0.01  0.00  0.98  0.00  0.00  0.00  0.00  0.00
  YSB1171HS02004479       1.00   0.01  0.00  0.00  0.99  0.00  0.00  0.00  0.10  0.00
  HS02004881HS02006253    1.00   0.01  0.00  0.00  0.76  0.03  0.00  0.19  0.60  0.00
  YS02001793JiankangQianchi    1.00   0.00  0.00  0.00  0.64  0.36  0.00  0.00  0.39  0.00
  YS02001757CaochengTiaoxuchi    1.00   0.00  0.06  0.00  0.94  0.00  0.00  0.00  0.00  0.00
  WSF200WS02003060        1.00   0.00  0.01  0.00  0.97  0.02  0.00  0.00  0.21  0.00
  1                       1.00   0.00  0.00  0.00  0.00  1.00  0.00  0.00  0.49  0.00
  
  
  *************************
  Conduit Surcharge Summary
  *************************
  
  ----------------------------------------------------------------------------
                                                           Hours        Hours 
                         --------- Hours Full --------   Above Full   Capacity
  Conduit                Both Ends  Upstream  Dnstream   Normal Flow   Limited
  ----------------------------------------------------------------------------
  WS02006229WS02006228        4.39      4.54      4.39      5.59         4.39
  WS02006256WS02006235        5.97      5.98      6.66      4.72         0.01
  WS02006253WS02006251        1.73      1.74      1.80      0.01         0.02
  WS02006252WS02006251        1.51      1.51      2.59      1.99         0.01
  WS02006251WS02006249        1.75      1.75      1.82      0.96         0.72
  WS02006249WS02006248        1.75      1.75      1.82      3.56         0.01
  WS02006248WS02006247        1.81      1.81      1.98      0.01         0.01
  WS02006247WS02006245        1.94      2.03      1.94      4.17         1.80
  WS02006245WS02006243        1.98      1.99      2.16      0.45         0.36
  WS02006243WS02006242        2.26      2.26      3.14      0.01         0.01
  WS02006242WS02006240        2.88      2.88      3.54      2.31         0.01
  WS02006240WS02006239        2.94      2.97      3.22      1.28         0.65
  WS02006239WS02006238        3.58      3.65      3.84      1.43         0.88
  WS02006238WS02006235        3.77      3.77      4.09      0.01         0.02
  WS02006235WS02006234        3.15      3.15      3.66      5.98         0.01
  WS02006234WS02006232        3.40      3.40      4.34      0.91         0.90
  WS02006232WS02006231        1.96      1.96      4.34      1.06         0.01
  WS02006231WS02006230        1.50      1.50      2.08      5.96         0.01
  WS02006230WS02006229        5.12      5.49      5.12      6.05         5.12
  WS02006228WS02006109        4.46      4.79      4.46      5.93         4.46
[...]
  YS02001770YS02001767        5.69      5.69      5.69      0.31         0.64
  YS02001774YS02001770        5.68      5.68      5.74      0.01         0.01
  YS02001779YS02001774        5.56      5.56      5.74      0.01         0.01
  YS02001649YS02001757        5.76      5.76      5.86      0.01         0.01
  YS02001767YS02001765        5.69      5.69      5.72      0.01         0.01
  YS02006561YS02001783        0.91      0.91      1.44      0.01         0.01
  YS02001783YS02001784        1.42      1.44      1.42      1.47         1.29
  YS02001784YS02001785        1.35      1.42      1.35      2.50         1.35
  YS02001788YS02001790        1.17      1.17      1.97      0.01         0.01
  YS02001790YS02001791        1.97      1.97      2.06      1.17         1.16
  YS02001791YS02001793        2.06      2.06      2.42      0.01         0.01
  YS02001910YS02001907        1.29      1.29      1.90      0.01         0.01
  YS02001786YS02001788        1.17      1.35      1.17      2.08         1.17
  YS02001915YS02001910        1.09      1.09      1.29      0.01         0.01
  YS02001918YS02001915        0.88      0.88      1.09      0.01         0.01
  YS02001923YS02001920        0.74      0.74      0.91      0.01         0.01
  YS02001920YS02001918        0.88      0.88      0.91      0.01         0.01
  YS02001629YS02163301        5.67      5.67      5.68      0.01         0.01
  YS02001619YS02001622        5.37      5.37      5.41      0.01         0.01
  YS02001622YS02001625        5.41      5.41      5.64      0.01         0.01
  YS02001625YS02001629        5.38      5.38      5.64      0.01         0.01
  YS02163301YS02001633        5.68      5.68      5.72      0.01         0.01
  YS02163601YS02164001        5.72      5.72      5.75      0.01         0.01
  YS02164001YS02001641        5.72      5.72      5.72      0.01         0.03
  YS02001641YS02001644        5.72      5.72      5.73      1.72         1.89
  YS02001647YS02001649        5.62      5.62      5.76      0.01         0.01
  YS02006553YS02006556        1.52      1.52      2.00      0.01         0.01
  YS02006556YS02006558        1.66      1.66      2.07      0.01         0.01
  YSB6556YSB1171              0.01      0.01      0.07      0.01         0.01
  YS02001907YS02006553        2.53      2.53      2.77      0.01         0.01
  YS02006558YS02006561        1.03      1.47      1.03      2.36         1.03
  YS02001633YS02163601        5.71      5.71      5.75      0.01         0.01
  YS02001644YS02001647        5.62      5.62      5.73      0.01         0.01
  YS02001745YS02001748        0.01      0.01      5.22      0.01         0.01
  YS02001748YS02001751        5.27      5.27      5.38      0.01         0.01
  YS02001751YS02001754        5.38      5.38      5.57      0.01         0.01
  YS02001754YS02001757        5.61      5.61      5.86      0.01         0.01
  YS02001882YS02001884        1.12      1.12      1.15      0.01         0.01
  YS02001884YS02001887        1.20      1.20      1.22      0.01         0.01
  YS02001890YS02001895        1.08      1.08      1.31      0.01         0.01
  YS02001895YS02001898        1.07      1.07      1.08      0.01         0.01
  YS02001898YS02001901        1.08      1.08      1.19      0.01         0.01
  YS02001901YS02001904        1.16      1.16      1.19      0.01         0.01
  YS02001904YS02001907        1.16      1.16      2.02      0.01         0.01
  YS02001887YS02001890        1.25      1.25      1.27      0.16         0.01
  YS02001652YS02001649        5.63      5.63      5.76      0.01         0.01
  YS02001655YS02001652        5.40      5.40      5.61      0.01         0.01
  YS02001658YS02001655        5.25      5.25      5.40      0.01         0.01
  YS02001661YS02001658        0.11      0.11      5.25      0.01         0.01
  YS02001664YS02001661        0.01      0.01      1.30      0.01         0.01
  HS02004881HS02006253        0.01      0.01      0.93      0.01         0.01
  YS02001793JiankangQianchi        2.33      2.33      4.00      0.01         0.01
  YS02001757CaochengTiaoxuchi        5.11      5.11      5.86      0.01         0.01
  
  
  ***************
  Pumping Summary
  ***************
  
  ---------------------------------------------------------------------------------------------------------
                                                  Min       Avg       Max     Total     Power    % Time Off
                        Percent   Number of      Flow      Flow      Flow    Volume     Usage    Pump Curve
  Pump                 Utilized   Start-Ups       LPS       LPS       LPS  10^6 ltr     Kw-hr    Low   High
  ---------------------------------------------------------------------------------------------------------
  CC-Pump-1               63.82           2      0.00    168.48    200.00     2.940      2.91    0.0    0.0
  CC-Pump-2               40.42           4      0.00     98.57    200.00     1.320      1.64    0.0    0.0
  JK-Pump-1               65.95           4      0.00    228.25    300.00     4.293     61.92    0.0    0.0
  JK-Pump-2               55.32           4      0.00    391.99    683.00     6.402     82.85    0.0   97.4
  XR-Pump-1               95.75           3      0.00     93.40     95.00     2.451     22.29    0.0    0.0
  XR-Pump-2               95.75           3      0.00     93.40     95.00     2.451     22.29    0.0    0.0
  XR-Pump-3               95.75           3      0.00     93.40     95.00     2.451     22.29    0.0    0.0
  XR-Pump-4               95.75           3      0.00     93.40     95.00     2.451     22.29    0.0    0.0
  
  
  ***************************
  Link Pollutant Load Summary
  ***************************
  
  ------------------------------------------------------------------------------------------
                                 COD            SS            TN            TP         NH4-N
  Link                            kg            kg            kg            kg            kg
  ------------------------------------------------------------------------------------------
  WS02003066WSF200           926.864      1725.370        23.998         2.080        12.595
  WS02006287WS02006284       319.486       608.128        10.315         1.015         5.679
  WS02006284WS02006280       319.961       608.903        10.361         1.021         5.708
  WS02006280WS02006229       319.907       608.792        10.359         1.020         5.706
  WS02006229WS02006228       927.273      1725.828        23.508         2.006        12.266
  WS02006256WS02006235       239.153       439.611         5.395         0.427         2.746
  WS02006253WS02006251        64.198       125.476         1.465         0.113         0.734
  WS02006252WS02006251       354.173       645.180         7.351         0.524         3.603
  WS02006251WS02006249       408.188       752.335         8.615         0.623         4.241
  WS02006249WS02006248       378.106       694.869         7.998         0.579         3.939
  WS02006248WS02006247       377.685       694.107         7.991         0.578         3.936
  WS02006247WS02006245       377.181       693.204         7.979         0.578         3.931
  WS02006245WS02006243       376.672       692.366         7.964         0.576         3.922
  WS02006243WS02006242       376.229       691.580         7.956         0.576         3.919
  WS02006242WS02006240       375.302       689.928         7.934         0.574         3.908
  WS02006240WS02006239       374.879       689.154         7.927         0.574         3.905
  WS02006239WS02006238       374.825       688.912         7.947         0.577         3.918
  WS02006238WS02006235       374.637       688.437         7.956         0.578         3.924
  WS02006235WS02006234       611.647      1124.437        13.268         0.996         6.623
  WS02006234WS02006232       610.951      1123.197        13.256         0.995         6.617
  WS02006232WS02006231       610.180      1121.817        13.236         0.994         6.607
  WS02006231WS02006230       609.602      1120.762        13.224         0.993         6.601
  WS02006230WS02006229       608.341      1118.668        13.183         0.989         6.579
  WS02006228WS02006109       925.995      1723.561        23.473         2.003        12.248
  WS02006116WS02004401       938.515      1746.178        24.281         2.103        12.739
  WS02006115WS02006116       939.822      1748.480        24.315         2.105        12.757
  WS02006113WS02006111       931.107      1731.129        24.185         2.096        12.702
  WS02006112WS02006115       941.195      1750.866        24.361         2.110        12.783
  WS02006111WS02006112       930.675      1730.424        24.176         2.095        12.697
  WS02006110WS02006113       931.810      1732.393        24.209         2.098        12.715
  WS02006109WS02006110       933.159      1734.773        24.257         2.103        12.741
  WS02004411WS02004412       930.038      1730.914        24.116         2.092        12.662
  WS02004401WS02004402       937.238      1743.954        24.239         2.099        12.716
  WS02004413WS02003067       927.565      1726.681        24.015         2.082        12.604
  WS02004412WS02004413       928.982      1729.068        24.084         2.089        12.644
  WS02004410WS02004411       930.980      1732.595        24.143         2.094        12.676
  WS02004409WS02004410       931.942      1734.291        24.172         2.097        12.692
  WS02004407WS02004409       932.764      1735.773        24.192         2.099        12.702
  WS02004406WS02004407       933.070      1736.380        24.193         2.098        12.701
  WS02004405WS02004406       934.690      1739.203        24.266         2.106        12.744
  WS02004404WS02004405       935.541      1740.795        24.259         2.104        12.736
  WS02004403WS02004404       935.102      1740.208        24.172         2.092        12.680
  WS02004402WS02004403       936.108      1741.961        24.207         2.096        12.699
  WS02004139WS02001211      1369.928      2275.006       111.134        13.565        68.501
  WS02004138WS02004139      1376.380      2285.776       111.634        13.625        68.808
  WS02003067WS02003066       927.081      1725.759        24.006         2.081        12.599
  WS02001213WS02003059      1402.909      2326.803       114.560        13.997        70.654
  WS02001212WS02001213      1412.597      2342.827       115.351        14.094        71.143
  WS02001211WS02001212      1414.186      2345.446       115.483        14.110        71.224
  WS02003072WS02003073      2430.242      4211.768       148.564        17.334        89.519
  WS02003069WS02003072      2435.082      4219.706       148.943        17.380        89.751
  WS02003060WS02003069      2437.578      4224.002       149.085        17.396        89.836
  WS02003059WS02003060      1399.672      2321.337       114.325        13.969        70.511
  HS02004901HS02004770        13.093        25.473         0.248         0.019         0.116
  HS02004876HS02004881        45.515        90.347         0.999         0.073         0.491
  HS02004870HS02004876        34.383        68.106         0.798         0.060         0.395
  HS02004842HS02004848         6.456        12.343         0.134         0.009         0.062
  HS02004837HS02004842        11.055        19.634         0.603         0.068         0.356
  HS02004830HS02004837        70.297       122.725         4.643         0.552         2.827
  HS02004824HS02004830        71.069       123.982         4.715         0.561         2.871
  HS02004817HS02004824        97.164       176.407         5.254         0.596         3.135
  HS02004770HS02004777        49.662        97.713         1.021         0.069         0.472
  HS02004799HS02004480       162.328       310.846         4.263         0.379         2.210
  HS02004792HS02004799       147.277       280.129         4.028         0.367         2.105
  HS02004788HS02004792        82.818       157.690         2.666         0.255         1.440
  HS02004785HS02004788        51.122       100.052         1.172         0.089         0.567
  HS02004777HS02004785        50.447        98.946         1.112         0.081         0.530
  HS02004480HS02004478       204.817       395.181         4.971         0.429         2.543
  HS02004479HS02004480        46.123        90.107         1.036         0.091         0.538
  HS02004862HS02004870        25.800        50.340         0.628         0.050         0.314
  HS02004848HS02004852        10.252        19.885         0.210         0.014         0.097
  HS02004856HS02004862        17.525        34.750         0.350         0.023         0.164
  HS02004852HS02004856        10.255        19.890         0.210         0.014         0.097
  HS02004802HS02004478       115.342       214.052         5.398         0.592         3.169
  HS02004478WS02006287       319.689       608.478        10.332         1.017         5.689
  HS02004817HS02004807        95.859       174.314         5.130         0.581         3.057
  HS02004807HS02004802       115.599       214.454         5.430         0.596         3.190
  YS02001759YS02001757       344.211       631.432         6.888         0.478         3.366
  YS02001762YS02001759       189.386       348.930         3.963         0.279         1.956
  YS02001765YS02001762       190.022       350.729         3.993         0.281         1.973
  YS02001770YS02001767       191.348       355.222         3.833         0.255         1.861
  YS02001774YS02001770       271.333       528.627         5.195         0.346         2.510
  YS02001779YS02001774       270.347       526.645         5.278         0.360         2.569
  YS02001649YS02001757       336.892       610.913         6.719         0.464         3.222
  YS02001767YS02001765       191.241       353.621         4.028         0.284         1.992
  YS02006561YS02001783      1026.734      1903.476        21.520         1.606        10.709
  YS02001783YS02001784      1026.607      1903.274        21.516         1.606        10.707
  YS02001784YS02001785      1033.917      1914.972        22.228         1.695        11.153
  YS02001788YS02001790      1034.476      1915.864        22.300         1.705        11.198
  YS02001790YS02001791      1035.522      1917.543        22.401         1.717        11.261
  YS02001791YS02001793      1035.397      1917.328        22.395         1.717        11.258
  YS02001910YS02001907       391.332       721.666         9.403         0.720         4.820
  YS02001786YS02001788      1034.107      1915.281        22.256         1.699        11.170
  YS02001915YS02001910       391.361       721.708         9.354         0.713         4.787
  YS02001918YS02001915       186.234       328.368         5.141         0.468         2.770
  YS02001923YS02001920       165.995       295.786         3.186         0.224         1.548
  YS02001926YS02001923       164.656       293.543         3.104         0.215         1.499
  YS02001929YS02001926       164.219       292.805         3.066         0.210         1.475
  YS02001920YS02001918       185.820       327.476         5.106         0.464         2.749
  YS02001629YS02163301        96.159       170.036         2.030         0.131         0.947
  YS02001619YS02001622       175.880       321.145         3.602         0.236         1.684
  YS02001622YS02001625       174.679       319.233         3.573         0.234         1.671
  YS02001625YS02001629        97.245       171.813         2.054         0.133         0.958
  YS02163301YS02001633        96.508       170.881         2.032         0.132         0.949
  YS02163601YS02164001       405.769       733.237         7.900         0.562         3.784
  YS02164001YS02001641       405.225       732.311         7.879         0.560         3.773
  YS02001641YS02001644       405.265       732.296         7.874         0.560         3.770
  YS02001647YS02001649       432.212       796.681         8.489         0.590         4.045
  YS02006553YS02006556       692.817      1273.926        14.894         1.140         7.496
  YS02006556YS02006558       692.759      1273.803        14.865         1.136         7.476
  YSB6556YSB1171              26.520        51.966         0.537         0.045         0.272
  YS02001907YS02006553       692.969      1274.235        14.903         1.142         7.501
  YS02006558YS02006561      1026.746      1903.499        21.519         1.606        10.708
  YS02001633YS02163601       406.507       734.388         7.881         0.558         3.768
  YS02001644YS02001647       440.184       810.866         8.628         0.600         4.111
  YS02001745YS02001748       248.239       464.584         5.331         0.360         2.628
  YS02001748YS02001751       247.096       462.260         5.423         0.375         2.694
  YS02001751YS02001754       246.106       460.626         5.404         0.374         2.686
  YS02001754YS02001757       246.874       461.774         5.570         0.397         2.793
  YS02001882YS02001884         3.572         6.195         0.072         0.006         0.036
  YS02001884YS02001887         6.865        12.134         0.136         0.011         0.067
  YS02001890YS02001895       450.957       846.427         8.302         0.624         4.049
  YS02001895YS02001898       450.812       846.245         8.295         0.624         4.046
  YS02001898YS02001901       450.645       845.961         8.292         0.623         4.044
  YS02001901YS02001904       450.510       845.779         8.298         0.625         4.049
  YS02001904YS02001907       450.747       846.150         8.352         0.632         4.083
  YS02001887YS02001890       468.239       880.705         8.645         0.653         4.223
  YS02001652YS02001649       200.447       372.785         4.033         0.290         1.892
  YS02001655YS02001652       200.936       373.596         4.046         0.291         1.898
  YS02001658YS02001655       200.271       372.542         3.955         0.280         1.840
  YS02001661YS02001658       203.613       378.552         4.022         0.284         1.871
  YS02001664YS02001661       219.018       403.629         4.375         0.308         2.032
  YSB1154YSB6556              26.084        51.269         0.486         0.038         0.239
  YSB1174YSB1171              18.021        35.562         0.361         0.029         0.180
  YSB1171HS02004479           46.089        90.053         1.039         0.092         0.540
  HS02004881HS02006253        51.501       102.616         1.103         0.080         0.540
  YS02001793JiankangQianchi      1036.475      1919.074        22.446         1.722        11.287
  YS02001757CaochengTiaoxuchi       616.891      1111.316        12.974         0.919         6.360
  WSF200WS02003060           926.949      1725.431        24.019         2.083        12.609
  1                         2436.425      4220.915       149.309        17.429        89.990
  CC-Pump-1                  243.954       444.185         5.067         0.361         2.484
  CC-Pump-2                  110.253       201.055         2.284         0.162         1.119
  JK-Pump-1                  319.817       592.508         7.031         0.548         3.556
  JK-Pump-2                  560.791      1059.833        11.325         0.834         5.592
  XR-Pump-1                  345.028       572.985        27.986         3.416        17.250
  XR-Pump-2                  345.028       572.985        27.986         3.416        17.250
  XR-Pump-3                  345.028       572.985        27.986         3.416        17.250
  XR-Pump-4                  345.028       572.985        27.986         3.416        17.250
  

  Analysis begun on:  Wed Jul 14 11:00:24 2021
  Analysis ended on:  Wed Jul 14 11:00:27 2021
  Total elapsed time: 00:00:03