
  EPA STORM WATER MANAGEMENT MODEL - VERSION 5.1 (Build 5.3.0.dev0)
  --------------------------------------------------------------

  WARNING 04: minimum elevation drop used for Conduit WS02004404WS02004405
  WARNING 03: negative offset ignored for Link YS02001904YS02001907
  
  *********************************************************
  NOTE: The summary statistics displayed in this report are
  based on results found at every computational time step,  
  not just on results from each reporting time step.
  *********************************************************
  
  ****************
  Analysis Options
  ****************
  Flow Units ............... LPS
  Process Models:
    Rainfall/Runoff ........ YES
    RDII ................... NO
    Snowmelt ............... NO
    Groundwater ............ NO
    Flow Routing ........... YES
    Ponding Allowed ........ NO
    Water Quality .......... YES
  Infiltration Method ...... HORTON
  Flow Routing Method ...... DYNWAVE
  Surcharge Method ......... EXTRAN
  Starting Date ............ 08/28/2015 08:00:00
  Ending Date .............. 08/28/2015 15:50:00
  Antecedent Dry Days ...... 8.0
  Report Time Step ......... 00:01:00
  Wet Time Step ............ 00:01:00
  Dry Time Step ............ 00:01:00
  Routing Time Step ........ 5.00 sec
  Variable Time Step ....... YES
  Maximum Trials ........... 8
  Number of Threads ........ 4
  Head Tolerance ........... 0.001500 m
  
  
  **************************        Volume         Depth
  Runoff Quantity Continuity     hectare-m            mm
  **************************     ---------       -------
  Total Precipitation ......        10.887        23.836
  Evaporation Loss .........         0.000         0.000
  Infiltration Loss ........         1.411         3.089
  Surface Runoff ...........         8.292        18.155
  Final Storage ............         1.186         2.596
  Continuity Error (%) .....        -0.016
  
  
  **************************           COD            SS            TN            TP         NH4-N
  Runoff Quality Continuity             kg            kg            kg            kg            kg
  **************************    ----------    ----------    ----------    ----------    ----------
  Initial Buildup ..........     41378.656     70582.865      1804.177       168.684      1032.807
  Surface Buildup ..........        41.425        91.431         2.568         0.227         1.442
  Wet Deposition ...........         0.000         0.000         0.000         0.000         0.000
  Sweeping Removal .........         0.000         0.000         0.000         0.000         0.000
  Infiltration Loss ........       164.554       320.127         3.263         0.236         1.574
  BMP Removal ..............         0.000         0.000         0.000         0.000         0.000
  Surface Runoff ...........      9366.500     18283.806       183.722        12.955        88.133
  Remaining Buildup ........     31885.964     52064.522      1619.692       155.715       944.511
  Continuity Error (%) .....         0.007         0.008         0.004         0.003         0.003
  
  
  **************************        Volume        Volume
  Flow Routing Continuity        hectare-m      10^6 ltr
  **************************     ---------     ---------
  Dry Weather Inflow .......         0.616         6.165
  Wet Weather Inflow .......         8.290        82.900
  Groundwater Inflow .......         0.000         0.000
  RDII Inflow ..............         0.000         0.000
  External Inflow ..........         0.102         1.024
  External Outflow .........         2.424        24.236
  Flooding Loss ............         6.099        60.992
  Evaporation Loss .........         0.000         0.000
  Exfiltration Loss ........         0.000         0.000
  Initial Stored Volume ....         0.076         0.761
  Final Stored Volume ......         0.666         6.663
  Continuity Error (%) .....        -1.147
  
  
  **************************           COD            SS            TN            TP         NH4-N
  Quality Routing Continuity            kg            kg            kg            kg            kg
  **************************    ----------    ----------    ----------    ----------    ----------
  Dry Weather Inflow .......      1541.201      2465.922       147.955        18.494        92.472
  Wet Weather Inflow .......      9365.184     18281.484       183.693        12.953        88.118
  Groundwater Inflow .......         0.000         0.000         0.000         0.000         0.000
  RDII Inflow ..............         0.000         0.000         0.000         0.000         0.000
  External Inflow ..........       183.418       293.469        17.608         2.201        11.005
  External Outflow .........      2970.262      5465.083       137.019        14.998        79.847
  Flooding Loss ............      7434.061     14382.639       184.781        15.861        96.184
  Exfiltration Loss ........         0.000         0.000         0.000         0.000         0.000
  Mass Reacted .............         0.000         0.000         0.000         0.000         0.000
  Initial Stored Mass ......         0.000         0.000         0.000         0.000         0.000
  Final Stored Mass ........       564.047       992.241        23.825         2.480        13.646
  Continuity Error (%) .....         1.095         0.955         1.040         0.922         1.002
  
  
  *************************
  Highest Continuity Errors
  *************************
  Node YS02001884 (11.37%)
  Node HS02004842 (7.73%)
  Node JK-storage (-7.00%)
  Node HS02004817 (1.58%)
  Node YSB1171 (1.38%)
  
  
  ***************************
  Time-Step Critical Elements
  ***************************
  Link WS02006252WS02006251 (56.19%)
  Link WS02006280WS02006229 (14.91%)
  Link YS02001793JiankangQianchi (6.17%)
  Link WS02006238WS02006235 (5.23%)
  Link YS02006556YS02006558 (2.76%)
  
  
  ********************************
  Highest Flow Instability Indexes
  ********************************
  Link WS02006113WS02006111 (35)
  Link WS02006111WS02006112 (27)
  Link YS02163601YS02164001 (26)
  Link WS02006238WS02006235 (25)
  Link YS02001629YS02163301 (25)
  
  
  *************************
  Routing Time Step Summary
  *************************
  Minimum Time Step           :     0.28 sec
  Average Time Step           :     1.22 sec
  Maximum Time Step           :     5.00 sec
  Percent in Steady State     :    -0.00
  Average Iterations per Step :     3.73
  Percent Not Converging      :    14.17
  
  
  ***************************
  Subcatchment Runoff Summary
  ***************************
  
  ------------------------------------------------------------------------------------------------------------------------------
                            Total      Total      Total      Total     Imperv       Perv      Total       Total     Peak  Runoff
                           Precip      Runon       Evap      Infil     Runoff     Runoff     Runoff      Runoff   Runoff   Coeff
  Subcatchment                 mm         mm         mm         mm         mm         mm         mm    10^6 ltr      LPS
  ------------------------------------------------------------------------------------------------------------------------------
  sub0                      23.84       0.00       0.00       0.77      22.12       0.90      23.02        0.02     5.06   0.966
  sub1                      23.84       0.00       0.00       1.33      21.12       1.29      22.41        0.15    33.98   0.940
  sub2                      23.84       0.00       0.00       5.60      14.93       3.22      18.15        0.17    32.49   0.761
  sub3                      23.84       0.00       0.00       5.94      14.89       2.88      17.77        0.40    70.76   0.745
  sub4                      23.84       0.00       0.00       1.46      20.95       1.16      22.11        0.46    81.55   0.928
  sub5                      23.84       0.00       0.00       0.82      22.07       0.85      22.92        0.26    59.56   0.962
  sub7                      23.84       0.00       0.00       1.03      21.63       1.11      22.74        0.08    19.22   0.954
  sub8                      23.84       0.00       0.00       1.05      21.62       1.10      22.72        0.15    35.26   0.953
  sub9                      23.84       0.00       0.00       1.05      21.62       1.10      22.71        0.11    26.33   0.953
  sub10                     23.84       0.00       0.00       0.94      21.84       0.97      22.81        0.25    58.74   0.957
  sub11                     23.84       0.00       0.00       0.92      21.86       0.99      22.85        0.27    65.28   0.959
  sub12                     23.84       0.00       0.00       1.50      20.69       1.60      22.29        0.19    51.10   0.935
  sub14                     23.84       0.00       0.00       1.05      21.61       1.09      22.71        0.22    51.81   0.953
  sub15                     23.84       0.00       0.00       4.05      16.62       3.10      19.72        0.34    74.01   0.827
  sub16                     23.84       0.00       0.00       4.23      15.93       3.63      19.56        0.20    48.29   0.821
  sub17                     23.84       0.00       0.00       4.13      16.17       3.50      19.67        0.17    39.49   0.825
  sub22                     23.84       0.00       0.00       6.08      13.55       4.17      17.72        1.12   235.47   0.743
  sub23                     23.84       0.00       0.00       5.01      14.97       3.81      18.78        0.90   197.86   0.788
  sub60                     23.84       0.00       0.00       2.13      18.82       0.73      19.55        5.93   667.30   0.820
  sub61                     23.84       0.00       0.00       3.01      18.52       1.04      19.56        6.03   717.95   0.821
  sub62                     23.84       0.00       0.00       1.25      20.31       0.65      20.96        6.44   751.14   0.880
  sub63                     23.84       0.00       0.00       5.57      16.04       1.34      17.38        5.26   638.31   0.729
  sub64                     23.84       0.00       0.00       2.78      18.11       0.79      18.90        5.75   644.78   0.793
  sub65                     23.84       0.00       0.00       2.36      18.46       0.74      19.20        5.90   658.64   0.806
  sub66                     23.84       0.00       0.00       5.92      15.37       0.99      16.36        5.02   574.80   0.686
  sub67                     23.84       0.00       0.00       1.18      20.92       0.73      21.65        6.68   814.16   0.908
  sub68                     23.84       0.00       0.00       2.35      19.35       0.99      20.34        6.25   750.28   0.853
  sub69                     23.84       0.00       0.00       2.36      19.61       1.21      20.83        4.87   655.18   0.874
  sub70                     23.84      21.26       0.00       9.95      28.09       5.22      33.30        7.62   861.91   0.738
  sub71                     23.84       0.00       0.00       1.29      20.01       0.62      20.63        4.87   557.88   0.866
  sub72                     23.84       0.00       0.00       1.26      17.48       0.41      17.89        3.64   352.81   0.750
  1                         23.84      32.43       0.00       1.37      34.56      12.51      47.07       11.06  1042.57   0.837
  2                         23.84       0.00       0.00       3.02       5.81       5.77      11.58        4.63   438.27   0.486
  
  
  ****************************
  Subcatchment Washoff Summary
  ****************************
  
  ------------------------------------------------------------------------------------------
                                 COD            SS            TN            TP         NH4-N
  Subcatchment                    kg            kg            kg            kg            kg
  ------------------------------------------------------------------------------------------
  sub0                         5.447        10.648         0.101         0.009         0.050
  sub1                        23.688        48.042         0.463         0.033         0.225
  sub2                        16.966        34.031         0.358         0.025         0.167
  sub3                        41.902        83.507         0.867         0.061         0.406
  sub4                        55.504       114.752         1.120         0.071         0.542
  sub5                        53.600       106.723         1.016         0.079         0.498
  sub7                        11.854        24.343         0.233         0.016         0.114
  sub8                        17.650        37.231         0.360         0.022         0.174
  sub9                        15.191        31.538         0.304         0.020         0.147
  sub10                       44.044        88.979         0.851         0.062         0.416
  sub11                       42.563        86.978         0.834         0.059         0.406
  sub12                       37.050        74.157         0.712         0.055         0.347
  sub14                       32.601        66.963         0.643         0.044         0.313
  sub15                       47.434        94.407         0.941         0.071         0.448
  sub16                       30.857        61.246         0.608         0.047         0.290
  sub17                       28.315        55.641         0.547         0.044         0.262
  sub22                      161.087       316.749         3.138         0.242         1.488
  sub23                       88.506       179.789         1.886         0.128         0.879
  sub60                      597.605      1177.766        11.858         0.760         5.721
  sub61                      735.660      1436.196        13.939         0.989         6.759
  sub62                      737.985      1463.009        14.530         0.959         7.028
  sub63                      558.710      1076.727        11.142         0.807         5.242
  sub64                      776.597      1477.973        14.527         1.087         6.999
  sub65                      790.465      1509.997        14.865         1.095         7.170
  sub66                      450.962       868.123         9.087         0.615         4.293
  sub67                     1073.899      2091.719        20.029         1.513         9.761
  sub68                      789.681      1552.112        15.327         1.072         7.390
  sub69                      691.072      1362.692        13.304         0.964         6.425
  sub70                     1288.654      2534.730        26.762         1.929        12.763
  sub71                      488.493       980.368         9.974         0.604         4.804
  sub72                      441.504       833.180         8.283         0.587         4.008
  1                         1052.298      2081.048        22.042         1.588        10.427
  2                          118.381       219.864         3.138         0.193         1.360
  ------------------------------------------------------------------------------------------
  System                   11346.226     22181.229       223.788        15.848       107.320
  
  
  ******************
  Node Depth Summary
  ******************
  
  ---------------------------------------------------------------------------------
                                 Average  Maximum  Maximum  Time of Max    Reported
                                   Depth    Depth      HGL   Occurrence   Max Depth
  Node                 Type       Meters   Meters   Meters  days hr:min      Meters
  ---------------------------------------------------------------------------------
  WS02001211           JUNCTION     0.79     0.86     5.69     0  01:43        0.86
  WS02001212           JUNCTION     0.50     0.59     5.65     0  01:42        0.59
  WS02001213           JUNCTION     0.75     0.87     5.63     0  01:41        0.87
  WS02003069           JUNCTION     0.56     0.74     5.32     0  01:43        0.74
  WS02003072           JUNCTION     0.62     0.78     5.15     0  01:41        0.78
  WS02003073           JUNCTION     0.38     0.49     4.55     0  01:42        0.49
  WS02003060           JUNCTION     0.50     0.65     5.58     0  01:40        0.65
  WS02003066           JUNCTION     0.28     0.40     5.95     0  01:35        0.40
  WS02003059           JUNCTION     0.80     0.92     5.61     0  01:43        0.92
  WS02003067           JUNCTION     0.66     0.84     6.16     0  01:35        0.84
  WS02004401           JUNCTION     0.82     1.46     7.46     0  01:32        1.29
  WS02004402           JUNCTION     0.85     1.41     7.37     0  01:32        1.26
  WS02004403           JUNCTION     0.86     1.36     7.29     0  01:32        1.23
  WS02004404           JUNCTION     0.93     1.39     7.24     0  01:32        1.27
  WS02004406           JUNCTION     0.92     1.25     7.08     0  01:32        1.19
  WS02004409           JUNCTION     0.63     1.04     6.81     0  01:35        1.02
  WS02004410           JUNCTION     0.64     1.01     6.73     0  01:35        1.00
  WS02004411           JUNCTION     0.65     0.97     6.65     0  01:35        0.97
  WS02004412           JUNCTION     0.66     0.94     6.58     0  01:35        0.93
  WS02004413           JUNCTION     0.81     1.05     6.52     0  01:35        1.04
  WS02004405           JUNCTION     0.92     1.35     7.20     0  01:32        1.24
  WS02006109           JUNCTION     0.95     1.91     8.52     0  01:33        1.87
  WS02006110           JUNCTION     0.90     1.78     8.37     0  01:32        1.62
  WS02006111           JUNCTION     0.33     1.27     7.98     0  01:32        1.00
  WS02006112           JUNCTION     1.02     1.90     7.78     0  01:32        1.64
  WS02006113           JUNCTION     0.45     1.42     8.31     0  01:32        1.07
  WS02006115           JUNCTION     0.73     1.53     7.67     0  01:32        1.29
  WS02006116           JUNCTION     0.81     1.53     7.57     0  01:32        1.32
  WS02006230           JUNCTION     1.01     2.13     8.88     0  01:33        2.11
  WS02006231           JUNCTION     0.75     1.74     8.86     0  01:33        1.72
  WS02006232           JUNCTION     0.90     1.81     8.85     0  01:34        1.79
  WS02006234           JUNCTION     0.85     1.68     8.84     0  01:34        1.67
  WS02006235           JUNCTION     0.90     1.67     8.84     0  01:34        1.64
  WS02006238           JUNCTION     0.92     1.68     8.83     0  01:34        1.66
  WS02006240           JUNCTION     0.84     1.50     8.79     0  01:33        1.48
  WS02006242           JUNCTION     0.90     1.51     8.77     0  01:34        1.48
  WS02006243           JUNCTION     0.78     1.33     8.75     0  01:34        1.30
  WS02006245           JUNCTION     0.76     1.24     8.73     0  01:34        1.22
  WS02006247           JUNCTION     0.77     1.21     8.71     0  01:33        1.20
  WS02006248           JUNCTION     0.71     1.10     8.69     0  01:32        1.10
  WS02006249           JUNCTION     0.72     1.09     8.69     0  01:32        1.09
  WS02006239           JUNCTION     0.89     1.60     8.81     0  01:34        1.59
  WS02006251           JUNCTION     0.71     1.47     9.14     0  01:32        1.21
  WS02006252           JUNCTION     0.43     0.93     9.17     0  01:32        0.74
  WS02006253           JUNCTION     0.73     1.97     9.62     0  01:32        1.27
  WS02006256           JUNCTION     1.82     2.35     9.28     0  00:18        2.35
  WS02004138           JUNCTION     0.19     0.20     7.45     0  00:00        0.19
  WS02004139           JUNCTION     0.73     0.80     5.71     0  01:42        0.80
  WS02004407           JUNCTION     0.28     0.42     6.74     0  01:35        0.42
  WS02006228           JUNCTION     0.99     2.11     8.76     0  01:33        2.07
  WS02006229           JUNCTION     0.98     2.20     8.90     0  01:33        2.17
  WS02006280           JUNCTION     0.08     0.51     8.78     0  01:33        0.50
  WS02006284           JUNCTION     0.39     0.72     9.12     0  01:34        0.72
  WS02006287           JUNCTION     0.12     0.46     9.42     0  01:34        0.46
  WSF200               JUNCTION     0.28     0.45     5.69     0  01:36        0.45
  HS02004901           JUNCTION     0.14     0.43    10.25     0  01:33        0.43
  HS02004881           JUNCTION     0.01     0.09     9.11     0  01:32        0.06
  HS02004876           JUNCTION     0.05     0.19     9.22     0  01:32        0.19
  HS02004870           JUNCTION     0.02     0.11     9.40     0  01:35        0.11
  HS02004862           JUNCTION     0.03     0.13     9.51     0  01:35        0.13
  HS02004856           JUNCTION     0.08     0.17     9.59     0  01:35        0.17
  HS02004852           JUNCTION     0.02     0.10     9.61     0  01:35        0.10
  HS02004848           JUNCTION     0.02     0.08     9.68     0  01:36        0.08
  HS02004842           JUNCTION     0.34     0.41     9.68     0  01:35        0.41
  HS02004837           JUNCTION     0.03     0.10     9.68     0  01:35        0.10
  HS02004830           JUNCTION     0.05     0.15     9.62     0  01:35        0.15
  HS02004824           JUNCTION     0.03     0.20     9.61     0  01:35        0.20
  HS02004817           JUNCTION     0.46     0.77     9.61     0  01:34        0.76
  HS02004807           JUNCTION     0.15     0.44     9.61     0  01:35        0.44
  HS02004802           JUNCTION     0.18     0.47     9.60     0  01:35        0.47
  HS02004799           JUNCTION     0.15     0.55     9.76     0  01:33        0.55
  HS02004792           JUNCTION     0.05     0.27     9.79     0  01:33        0.27
  HS02004788           JUNCTION     0.04     0.19    10.09     0  01:34        0.19
  HS02004785           JUNCTION     0.06     0.29    10.19     0  01:33        0.29
  HS02004777           JUNCTION     0.16     0.44    10.24     0  01:33        0.44
  HS02004770           JUNCTION     0.14     0.42    10.25     0  01:33        0.42
  HS02004480           JUNCTION     0.10     0.46     9.70     0  01:33        0.46
  HS02004479           JUNCTION     0.14     0.49     9.70     0  01:34        0.49
  HS02004478           JUNCTION     0.08     0.35     9.58     0  01:34        0.35
  YS02001745           JUNCTION     0.81     1.39     8.91     0  01:29        1.05
  YS02001748           JUNCTION     1.22     1.88     8.96     0  01:28        1.47
  YS02001751           JUNCTION     1.40     1.76     8.64     0  01:29        1.64
  YS02001754           JUNCTION     1.65     1.92     8.53     0  01:29        1.89
  YS02001762           JUNCTION     1.85     2.07     8.47     0  03:00        2.07
  YS02001765           JUNCTION     1.80     2.02     8.47     0  03:00        2.02
  YS02001767           JUNCTION     1.77     1.97     8.46     0  03:00        1.97
  YS02001770           JUNCTION     1.76     1.95     8.44     0  02:04        1.95
  YS02001774           JUNCTION     1.82     2.00     8.42     0  02:04        1.99
  YS02001779           JUNCTION     1.56     1.68     8.37     0  01:26        1.68
  YS02001882           JUNCTION     0.74     1.71     8.43     0  01:32        1.64
  YS02001884           JUNCTION     0.83     1.79     8.41     0  01:32        1.74
  YS02001759           JUNCTION     1.89     2.11     8.48     0  03:01        2.11
  YS02001887           JUNCTION     0.91     1.84     8.38     0  01:32        1.82
  YS02001890           JUNCTION     0.94     1.81     8.32     0  01:32        1.81
  YS02001898           JUNCTION     0.70     1.57     8.30     0  01:33        1.56
  YS02001901           JUNCTION     0.82     1.68     8.29     0  01:33        1.67
  YS02001904           JUNCTION     0.80     1.64     8.27     0  01:33        1.63
  YS02001907           JUNCTION     1.13     1.96     8.25     0  01:33        1.96
  YS02001910           JUNCTION     0.92     1.99     8.50     0  01:33        1.85
  YS02001915           JUNCTION     0.73     1.93     8.65     0  01:33        1.72
  YS02001918           JUNCTION     0.47     1.81     8.88     0  01:33        1.50
  YS02001619           JUNCTION     1.35     1.61     8.54     0  01:27        1.51
  YS02001629           JUNCTION     1.70     1.85     8.40     0  01:27        1.85
  YS02001641           JUNCTION     1.80     1.96     8.39     0  01:29        1.93
  YS02001644           JUNCTION     1.80     1.92     8.35     0  01:29        1.92
  YS02001652           JUNCTION     1.66     2.05     8.65     0  01:29        1.87
  YS02001655           JUNCTION     1.42     1.99     8.84     0  01:29        1.63
  YS02001920           JUNCTION     0.58     2.10     9.11     0  01:33        1.61
  YS02001923           JUNCTION     0.39     2.01     9.27     0  01:33        1.39
  YS02001926           JUNCTION     0.42     1.90     9.35     0  01:33        1.23
  YS02001929           JUNCTION     0.26     1.78     9.47     0  01:33        1.02
  YS02001658           JUNCTION     1.15     1.78     8.93     0  01:29        1.43
  YS02001661           JUNCTION     0.91     1.86     9.26     0  01:29        1.31
  YS02001664           JUNCTION     0.42     0.68     8.61     0  01:30        0.68
  YS02001622           JUNCTION     1.37     1.62     8.52     0  01:27        1.52
  YS02001633           JUNCTION     1.79     1.98     8.43     0  01:29        1.95
  YS02001649           JUNCTION     1.86     2.05     8.44     0  01:29        2.05
  YS02001757           JUNCTION     1.98     2.21     8.47     0  03:00        2.21
  YS02001895           JUNCTION     0.70     1.57     8.31     0  01:44        1.56
  YS02001625           JUNCTION     1.65     1.78     8.38     0  01:27        1.78
  YS02163301           JUNCTION     1.73     1.90     8.42     0  01:29        1.89
  YS02163601           JUNCTION     1.84     2.03     8.43     0  01:29        2.00
  YS02164001           JUNCTION     1.78     1.96     8.42     0  01:29        1.93
  YS02001647           JUNCTION     1.64     1.80     8.41     0  04:31        1.79
  YSB1154              JUNCTION     0.28     0.65     9.70     0  01:34        0.65
  YSB6556              JUNCTION     0.17     0.53     9.70     0  01:33        0.53
  YSB1174              JUNCTION     0.23     0.59     9.70     0  01:33        0.59
  YSB1171              JUNCTION     0.43     0.80     9.70     0  01:34        0.80
  YS02006553           JUNCTION     1.13     1.97     8.26     0  01:58        1.97
  YS02006561           JUNCTION     0.44     1.29     7.95     0  01:32        1.08
  YS02006556           JUNCTION     1.09     1.94     8.25     0  01:51        1.94
  YS02006558           JUNCTION     1.13     1.99     8.25     0  01:58        1.98
  YS02001783           JUNCTION     0.69     1.66     7.80     0  01:32        1.47
  YS02001784           JUNCTION     0.70     1.63     7.70     0  01:32        1.42
  YS02001786           JUNCTION     0.62     1.82     7.85     0  01:32        1.27
  YS02001788           JUNCTION     0.54     2.28     8.26     0  01:32        1.13
  YS02001790           JUNCTION     0.68     1.92     7.57     0  01:32        1.29
  YS02001791           JUNCTION     0.66     1.59     7.06     0  01:31        1.27
  YS02001793           JUNCTION     0.95     2.15     6.99     0  01:30        1.80
  WSC                  OUTFALL      0.38     0.49     1.16     0  01:43        0.49
  JK-storage           STORAGE      3.49     5.80     6.60     0  01:32        5.80
  CC-storage           STORAGE      1.23     1.46     8.46     0  03:03        1.46
  XR-storage           STORAGE      7.25     7.72     5.72     0  01:47        7.72
  
  
  *******************
  Node Inflow Summary
  *******************
  
  -------------------------------------------------------------------------------------------------
                                  Maximum  Maximum                  Lateral       Total        Flow
                                  Lateral    Total  Time of Max      Inflow      Inflow     Balance
                                   Inflow   Inflow   Occurrence      Volume      Volume       Error
  Node                 Type           LPS      LPS  days hr:min    10^6 ltr    10^6 ltr     Percent
  -------------------------------------------------------------------------------------------------
  WS02001211           JUNCTION      7.35   390.11     0  03:15       0.207        10.4       0.395
  WS02001212           JUNCTION      0.00   392.84     0  03:15           0        10.4       0.239
  WS02001213           JUNCTION      0.00   395.22     0  03:15           0        10.4       0.290
  WS02003069           JUNCTION      0.32  1378.70     0  01:42     0.00902        24.3       0.163
  WS02003072           JUNCTION      0.00  1378.88     0  01:43           0        24.3       0.190
  WS02003073           JUNCTION      1.82  1380.57     0  01:44      0.0514        24.3       0.224
  WS02003060           JUNCTION     16.53  1379.11     0  01:42       0.466        24.4       0.152
  WS02003066           JUNCTION      0.00  1000.14     0  01:35           0        13.6       0.040
  WS02003059           JUNCTION      0.00   397.99     0  03:14           0        10.3       0.410
  WS02003067           JUNCTION      0.00   995.93     0  01:35           0        13.6       0.079
  WS02004401           JUNCTION      0.00  1016.23     0  01:34           0        13.9       0.173
  WS02004402           JUNCTION      0.00  1016.84     0  01:34           0        13.9       0.161
  WS02004403           JUNCTION      0.00  1017.12     0  01:34           0        13.8       0.145
  WS02004404           JUNCTION      0.16  1018.22     0  01:34     0.00457        13.8       0.109
  WS02004406           JUNCTION      0.00  1019.75     0  01:34           0        13.8       0.261
  WS02004409           JUNCTION      0.00  1017.30     0  01:34           0        13.7       0.149
  WS02004410           JUNCTION      0.00  1008.04     0  01:34           0        13.7       0.165
  WS02004411           JUNCTION      0.00   993.61     0  01:36           0        13.7       0.166
  WS02004412           JUNCTION      0.00   993.94     0  01:36           0        13.7       0.175
  WS02004413           JUNCTION      0.00   995.04     0  01:35           0        13.7       0.253
  WS02004405           JUNCTION      0.04  1019.21     0  01:34     0.00107        13.8       0.159
  WS02006109           JUNCTION      1.23   978.08     0  01:34      0.0347        13.9       0.123
  WS02006110           JUNCTION      0.00   977.97     0  01:34           0        13.8       0.160
  WS02006111           JUNCTION      0.00   977.72     0  01:34           0        13.8       0.035
  WS02006112           JUNCTION     39.49  1016.19     0  01:34       0.169          14       0.229
  WS02006113           JUNCTION      0.00   977.96     0  01:34           0        13.8       0.084
  WS02006115           JUNCTION      0.00  1015.96     0  01:34           0        13.9       0.172
  WS02006116           JUNCTION      0.00  1015.92     0  01:34           0        13.9       0.147
  WS02006230           JUNCTION     10.28   533.80     0  07:30        0.29        9.43       0.152
  WS02006231           JUNCTION      0.00   523.29     0  07:31           0        9.13       0.129
  WS02006232           JUNCTION      0.00   523.47     0  07:30           0        9.12       0.185
  WS02006234           JUNCTION      0.00   524.00     0  07:30           0        9.11       0.118
  WS02006235           JUNCTION      0.00   524.58     0  07:30           0        9.24       0.110
  WS02006238           JUNCTION      0.00   418.13     0  05:00           0        5.82       0.152
  WS02006240           JUNCTION      0.00   416.77     0  05:00           0        5.81       0.243
  WS02006242           JUNCTION      0.00   416.52     0  05:00           0         5.8       0.295
  WS02006243           JUNCTION      0.00   416.13     0  05:00           0         5.8       0.181
  WS02006245           JUNCTION      0.00   415.91     0  05:00           0         5.8       0.186
  WS02006247           JUNCTION      0.00   416.00     0  05:00           0         5.8       0.140
  WS02006248           JUNCTION      0.00   417.30     0  05:00           0        5.84       0.088
  WS02006249           JUNCTION      0.00   488.19     0  02:40           0        6.86       0.148
  WS02006239           JUNCTION      0.00   417.66     0  05:00           0        5.81       0.214
  WS02006251           JUNCTION      0.08   486.84     0  02:40     0.00217        6.91       0.132
  WS02006252           JUNCTION      0.00   400.00     0  04:10           0        5.94       0.011
  WS02006253           JUNCTION      5.06   279.82     0  01:31      0.0186       0.961       0.371
  WS02006256           JUNCTION      0.00   983.00     0  01:40           0        14.3       0.007
  WS02004138           JUNCTION      0.00   380.00     0  00:00           0        10.3       0.067
  WS02004139           JUNCTION      0.32   394.45     0  00:00     0.00905        10.3       0.450
  WS02004407           JUNCTION      0.00  1020.03     0  01:34           0        13.8       0.065
  WS02006228           JUNCTION      0.00   977.08     0  01:34           0        13.8       0.101
  WS02006229           JUNCTION      0.00  1053.74     0  01:32           0        13.9       0.102
  WS02006280           JUNCTION      0.00   937.46     0  01:34           0        4.56       0.014
  WS02006284           JUNCTION      0.10   934.65     0  01:35      0.0027        4.56       0.018
  WS02006287           JUNCTION      0.00   934.64     0  01:35           0        4.56       0.019
  WSF200               JUNCTION      0.00  1001.01     0  01:36           0        13.6       0.040
  HS02004901           JUNCTION     48.29    48.29     0  01:31       0.205       0.205       0.867
  HS02004881           JUNCTION     19.22   195.84     0  01:33      0.0766       0.897       0.079
  HS02004876           JUNCTION     33.98   176.89     0  01:34       0.149       0.821       0.068
  HS02004870           JUNCTION     35.26   143.33     0  01:34       0.145       0.672       0.017
  HS02004862           JUNCTION     32.69   109.55     0  01:35       0.175       0.527       0.033
  HS02004856           JUNCTION     26.33    76.92     0  01:35       0.109       0.354       0.408
  HS02004852           JUNCTION      0.00    51.63     0  01:36           0       0.245       0.025
  HS02004848           JUNCTION     70.76    70.76     0  01:38         0.4         0.4       0.012
  HS02004842           JUNCTION      0.00    21.86     0  01:49           0       0.168       8.373
  HS02004837           JUNCTION     65.09    82.02     0  01:35       0.431       0.586       0.138
  HS02004830           JUNCTION      0.15    82.12     0  01:35     0.00423       0.576       0.215
  HS02004824           JUNCTION     81.60   164.05     0  01:38       0.463        1.04       0.052
  HS02004817           JUNCTION      0.60   166.59     0  01:39      0.0169        1.05       1.606
  HS02004807           JUNCTION     65.28   225.43     0  01:36       0.265         1.3       0.342
  HS02004802           JUNCTION      0.00   226.44     0  01:37           0         1.3       0.297
  HS02004799           JUNCTION     51.81   605.47     0  01:33       0.216        2.82       0.117
  HS02004792           JUNCTION    235.75   554.35     0  01:33        1.13        2.61       0.015
  HS02004788           JUNCTION     75.68   319.93     0  01:33       0.386        1.48       0.026
  HS02004785           JUNCTION      0.15   244.47     0  01:33     0.00423         1.1       0.047
  HS02004777           JUNCTION      0.03   244.66     0  01:32    0.000846         1.1       0.479
  HS02004770           JUNCTION    197.86   245.54     0  01:32       0.896         1.1       0.279
  HS02004480           JUNCTION      0.00   713.04     0  01:33           0        3.27       0.024
  HS02004479           JUNCTION      0.00   107.71     0  01:33           0       0.464       0.161
  HS02004478           JUNCTION      0.00   934.57     0  01:35           0        4.56       0.007
  YS02001745           JUNCTION    667.30   667.30     0  03:01        5.93        5.93       0.189
  YS02001748           JUNCTION      0.04   667.56     0  03:01     0.00127        5.92       0.378
  YS02001751           JUNCTION      0.01   667.84     0  03:01     0.00031         5.9       0.411
  YS02001754           JUNCTION      0.26   668.66     0  03:01     0.00733        5.89       0.413
  YS02001762           JUNCTION      0.00   370.09     0  01:35           0        3.33       0.636
  YS02001765           JUNCTION      0.00   370.33     0  01:35           0        3.32       0.731
  YS02001767           JUNCTION      0.54   370.77     0  01:35      0.0151        3.35       1.079
  YS02001770           JUNCTION    751.30  1106.40     0  03:01        6.45        8.29       0.373
  YS02001774           JUNCTION      0.00   851.17     0  02:48           0        6.41       0.390
  YS02001779           JUNCTION      0.01   851.17     0  02:45    0.000141        6.38       0.240
  YS02001882           JUNCTION      0.00    39.35     0  01:30           0      0.0226      13.512
  YS02001884           JUNCTION      0.00    58.94     0  01:29           0      0.0594      12.829
  YS02001759           JUNCTION    717.99   896.70     0  01:42        6.03        7.49       0.304
  YS02001887           JUNCTION    814.61   815.38     0  01:57        6.69        6.72       0.133
  YS02001890           JUNCTION      0.00   816.19     0  01:57           0        6.67       0.151
  YS02001898           JUNCTION      0.00   598.26     0  01:32           0        5.38       0.054
  YS02001901           JUNCTION      0.00   602.78     0  01:32           0        5.38       0.151
  YS02001904           JUNCTION      0.00   603.97     0  01:32           0        5.38       0.129
  YS02001907           JUNCTION      0.00  1427.96     0  03:01           0          14       0.181
  YS02001910           JUNCTION      0.00   911.28     0  03:01           0         8.6       0.144
  YS02001915           JUNCTION    557.90   911.10     0  03:01        4.87        8.65       0.083
  YS02001918           JUNCTION      0.00   431.26     0  01:32           0        3.81       0.045
  YS02001619           JUNCTION    574.80   574.80     0  03:01        5.02        5.02       0.237
  YS02001629           JUNCTION      0.00   278.50     0  01:26           0        2.09       1.358
  YS02001641           JUNCTION      0.00   457.15     0  01:28           0        6.13       0.345
  YS02001644           JUNCTION    644.82  1924.41     0  03:01        5.75        18.5       0.140
  YS02001652           JUNCTION      0.00   639.59     0  03:01           0        5.22       0.437
  YS02001655           JUNCTION      0.15   639.40     0  03:01     0.00434        5.25       0.487
  YS02001920           JUNCTION      2.87   418.14     0  01:32      0.0809        3.79       0.091
  YS02001923           JUNCTION      0.04   403.06     0  01:33     0.00106        3.69       0.047
  YS02001926           JUNCTION      0.05   474.27     0  01:33     0.00147        3.66       0.068
  YS02001929           JUNCTION    352.81   352.81     0  03:01        3.64        3.65       0.008
  YS02001658           JUNCTION      0.00   638.98     0  03:01           0        5.27       0.472
  YS02001661           JUNCTION      0.00   794.56     0  01:40           0        5.55      -0.146
  YS02001664           JUNCTION    638.31   638.31     0  03:01        5.26        5.55       0.110
  YS02001622           JUNCTION      0.00   574.86     0  03:01           0        5.01       0.630
  YS02001633           JUNCTION    658.84   658.84     0  03:01        5.91        7.08       0.451
  YS02001649           JUNCTION      0.00  1438.56     0  03:01           0        10.5       0.350
  YS02001757           JUNCTION      0.00  2183.08     0  01:41           0        13.8       0.666
  YS02001895           JUNCTION      0.00   594.51     0  01:32           0        5.39       0.122
  YS02001625           JUNCTION      0.00   801.48     0  03:01           0        5.86       0.684
  YS02163301           JUNCTION      0.00   281.04     0  01:26           0        2.09       1.158
  YS02163601           JUNCTION      0.11   457.93     0  01:28      0.0031        6.14       0.490
  YS02164001           JUNCTION      0.00   456.91     0  01:28           0        6.13       0.327
  YS02001647           JUNCTION      0.00   846.70     0  03:22           0        7.97       0.356
  YSB1154              JUNCTION     59.56    59.56     0  01:33        0.26        0.26       0.556
  YSB6556              JUNCTION      0.00    59.43     0  01:33           0       0.261       0.488
  YSB1174              JUNCTION     51.10    51.10     0  01:30       0.195       0.195       0.658
  YSB1171              JUNCTION      0.00   108.25     0  01:32           0       0.462       1.395
  YS02006553           JUNCTION      0.00   731.15     0  04:02           0        7.58       0.213
  YS02006561           JUNCTION      0.00  1061.67     0  01:32           0        13.8       0.008
  YS02006556           JUNCTION      0.00   731.44     0  04:02           0        7.59       0.156
  YS02006558           JUNCTION    751.16  1059.54     0  01:32        6.28        13.8       0.037
  YS02001783           JUNCTION      0.00  1025.21     0  01:31           0        13.8       0.021
  YS02001784           JUNCTION      1.06  1027.08     0  01:31      0.0299        13.8       0.030
  YS02001786           JUNCTION      0.06  1027.02     0  01:31     0.00159        13.8       0.028
  YS02001788           JUNCTION      0.07  1009.60     0  01:31       0.002        13.8       0.017
  YS02001790           JUNCTION      0.15   984.21     0  01:50     0.00437        13.8       0.013
  YS02001791           JUNCTION      0.00   984.07     0  02:01           0        13.8       0.005
  YS02001793           JUNCTION      0.00   984.51     0  01:50           0        13.8      -0.006
  WSC                  OUTFALL       0.00  1381.41     0  01:43           0        24.2       0.000
  JK-storage           STORAGE       0.00  1029.56     0  01:30           0          14      -6.544
  CC-storage           STORAGE       0.00  2183.40     0  01:41           0        9.63       0.663
  XR-storage           STORAGE    1680.85  1680.85     0  03:01        21.3        21.9       0.001
  
  
  **********************
  Node Surcharge Summary
  **********************
  
  Surcharging occurs when water rises above the top of the highest conduit.
  ---------------------------------------------------------------------
                                               Max. Height   Min. Depth
                                   Hours       Above Crown    Below Rim
  Node                 Type      Surcharged         Meters       Meters
  ---------------------------------------------------------------------
  WS02004401           JUNCTION        1.81          0.457        1.203
  WS02004402           JUNCTION        1.85          0.406        1.334
  WS02004403           JUNCTION        1.85          0.359        1.671
  WS02004404           JUNCTION        2.17          0.387        2.393
  WS02004406           JUNCTION        2.06          0.249        2.201
  WS02004409           JUNCTION        0.13          0.044        2.316
  WS02004410           JUNCTION        0.01          0.007        2.533
  WS02004413           JUNCTION        0.89          0.048        2.152
  WS02004405           JUNCTION        2.13          0.352        2.448
  WS02006109           JUNCTION        5.44          1.087        0.733
  WS02006110           JUNCTION        3.70          0.870        0.980
  WS02006111           JUNCTION        0.65          0.464        1.406
  WS02006112           JUNCTION        4.10          0.897        0.783
  WS02006113           JUNCTION        0.72          0.617        1.313
  WS02006115           JUNCTION        1.72          0.518        1.732
  WS02006116           JUNCTION        1.74          0.468        1.822
  WS02006230           JUNCTION        3.50          1.051        0.519
  WS02006231           JUNCTION        3.98          1.030        0.500
  WS02006232           JUNCTION        5.58          1.109        0.371
  WS02006234           JUNCTION        4.84          0.959        0.281
  WS02006235           JUNCTION        5.19          0.962        0.328
  WS02006238           JUNCTION        5.34          0.962        0.468
  WS02006240           JUNCTION        4.90          0.792        0.598
  WS02006242           JUNCTION        5.16          0.775        0.045
  WS02006243           JUNCTION        4.74          0.621        0.149
  WS02006245           JUNCTION        4.60          0.531        0.319
  WS02006247           JUNCTION        4.64          0.503        0.257
  WS02006248           JUNCTION        4.30          0.380        0.000
  WS02006249           JUNCTION        4.40          0.390        0.000
  WS02006239           JUNCTION        4.99          0.859        0.431
  WS02006251           JUNCTION        3.03          0.436        0.744
  WS02006252           JUNCTION        4.75          0.530        0.570
  WS02006253           JUNCTION        3.19          0.931        1.549
  WS02006256           JUNCTION        7.14          2.050        0.000
  WS02006228           JUNCTION        5.38          1.277        0.923
  WS02006229           JUNCTION        0.01          0.022        1.048
  HS02004817           JUNCTION        0.46          0.066        1.674
  YS02001745           JUNCTION        0.98          0.394        0.956
  YS02001748           JUNCTION        6.35          0.801        0.389
  YS02001751           JUNCTION        6.36          0.756        0.444
  YS02001754           JUNCTION        6.38          0.870        0.280
  YS02001762           JUNCTION        6.40          1.072        0.078
  YS02001765           JUNCTION        6.40          1.016        0.084
  YS02001767           JUNCTION        6.39          0.969        0.061
  YS02001770           JUNCTION        6.39          0.920        0.000
  YS02001774           JUNCTION        6.40          0.998        0.052
  YS02001779           JUNCTION        6.37          0.680        0.000
  YS02001882           JUNCTION        2.54          0.710        0.120
  YS02001884           JUNCTION        2.56          0.732        0.138
  YS02001759           JUNCTION        6.41          1.114        0.096
  YS02001887           JUNCTION        2.62          0.789        0.161
  YS02001890           JUNCTION        2.64          0.760        0.000
  YS02001898           JUNCTION        2.51          0.539        0.201
  YS02001901           JUNCTION        2.59          0.684        0.186
  YS02001904           JUNCTION        2.57          0.642        0.208
  YS02001907           JUNCTION        3.13          0.950        0.000
  YS02001910           JUNCTION        2.67          0.991        0.109
  YS02001915           JUNCTION        2.54          0.928        0.072
  YS02001918           JUNCTION        2.40          0.810        0.000
  YS02001619           JUNCTION        6.37          0.610        0.000
  YS02001629           JUNCTION        6.37          0.470        0.000
  YS02001641           JUNCTION        6.40          0.956        0.144
  YS02001644           JUNCTION        6.40          0.920        0.000
  YS02001652           JUNCTION        6.38          1.021        0.109
  YS02001655           JUNCTION        6.37          0.986        0.214
  YS02001920           JUNCTION        2.42          1.101        0.039
  YS02001923           JUNCTION        0.01          0.800        0.020
  YS02001926           JUNCTION        0.01          0.900        0.000
  YS02001929           JUNCTION        0.01          0.780        0.000
  YS02001658           JUNCTION        6.35          0.784        0.516
  YS02001661           JUNCTION        1.48          0.789        0.601
  YS02001622           JUNCTION        6.37          0.620        0.000
  YS02001633           JUNCTION        6.40          0.960        0.100
  YS02001649           JUNCTION        6.40          1.050        0.000
  YS02001757           JUNCTION        6.42          1.210        0.000
  YS02001895           JUNCTION        2.53          0.567        0.183
  YS02001625           JUNCTION        6.38          0.780        0.000
  YS02163301           JUNCTION        6.39          0.902        0.128
  YS02163601           JUNCTION        6.40          1.035        0.045
  YS02164001           JUNCTION        6.40          0.963        0.137
  YS02001647           JUNCTION        6.38          0.801        0.099
  YS02006553           JUNCTION        3.20          0.974        0.216
  YS02006561           JUNCTION        2.42          0.492        0.658
  YS02006556           JUNCTION        2.84          0.900        0.450
  YS02006558           JUNCTION        2.81          0.888        0.512
  YS02001783           JUNCTION        2.63          0.864        0.736
  YS02001784           JUNCTION        2.60          0.835        0.655
  YS02001786           JUNCTION        2.52          1.019        0.411
  YS02001788           JUNCTION        2.47          1.480        0.000
  YS02001790           JUNCTION        3.26          1.120        0.037
  YS02001791           JUNCTION        3.35          0.792        1.128
  YS02001793           JUNCTION        3.61          1.155        1.445
  
  
  *********************
  Node Flooding Summary
  *********************
  
  Flooding refers to all water that overflows a node, whether it ponds or not.
  --------------------------------------------------------------------------
                                                             Total   Maximum
                                 Maximum   Time of Max       Flood    Ponded
                        Hours       Rate    Occurrence      Volume     Depth
  Node                 Flooded       LPS   days hr:min    10^6 ltr    Meters
  --------------------------------------------------------------------------
  WS02006248              0.43    152.10      0  01:38       0.139     0.000
  WS02006249              3.08    349.41      0  01:32       1.110     0.000
  WS02006256              4.63    834.99      0  01:40      10.712     0.000
  YS02001770              1.12    255.19      0  03:01       0.365     0.000
  YS02001779              3.80    851.17      0  02:45       6.357     0.000
  YS02001890              1.74    299.15      0  01:57       1.275     0.000
  YS02001907              2.27   1197.49      0  03:01       6.359     0.000
  YS02001918              0.01     83.85      0  01:33       0.000     0.000
  YS02001619              0.01    104.08      0  01:27       0.000     0.000
  YS02001629              0.01    239.92      0  01:27       0.002     0.000
  YS02001644              5.42   1924.36      0  03:01      17.165     0.000
  YS02001926              0.01     12.28      0  01:33       0.000     0.000
  YS02001929              0.01    264.54      0  01:33       0.001     0.000
  YS02001622              0.01     87.91      0  01:27       0.000     0.000
  YS02001649              1.29    591.81      0  03:01       1.467     0.000
  YS02001757              0.01      0.29      0  03:01       0.000     0.000
  YS02001625              3.02    801.47      0  03:01       4.634     0.000
  YS02001788              0.01    132.60      0  01:32       0.000     0.000
  JK-storage              0.67    695.92      0  01:32       0.666     0.000
  XR-storage              6.04   1300.69      0  03:01      10.739     0.000
  
  
  **********************
  Storage Volume Summary
  **********************
  
  --------------------------------------------------------------------------------------------------
                         Average     Avg  Evap Exfil       Maximum     Max    Time of Max    Maximum
                          Volume    Pcnt  Pcnt  Pcnt        Volume    Pcnt     Occurrence    Outflow
  Storage Unit           1000 m3    Full  Loss  Loss       1000 m3    Full    days hr:min        LPS
  --------------------------------------------------------------------------------------------------
  JK-storage               0.175      60     0     0         0.291     100       0  01:32     983.00
  CC-storage               3.428      22     0     0         4.083      26       0  03:03     400.00
  XR-storage               0.869      94     0     0         0.926     100       0  01:47     380.00
  
  
  ***********************
  Outfall Loading Summary
  ***********************
  
  ---------------------------------------------------------------------------------------------------------------------------------
                         Flow       Avg       Max       Total         Total         Total         Total         Total         Total
                         Freq      Flow      Flow      Volume           COD            SS            TN            TP         NH4-N
  Outfall Node           Pcnt       LPS       LPS    10^6 ltr            kg            kg            kg            kg            kg
  ---------------------------------------------------------------------------------------------------------------------------------
  WSC                  100.00    901.88   1381.41      24.236      2970.424      5465.362       137.029        14.999        79.853
  ---------------------------------------------------------------------------------------------------------------------------------
  System               100.00    901.88   1381.41      24.236      2970.424      5465.362       137.029        14.999        79.853
  
  
  ********************
  Link Flow Summary
  ********************
  
  -----------------------------------------------------------------------------
                                 Maximum  Time of Max   Maximum    Max/    Max/
                                  |Flow|   Occurrence   |Veloc|    Full    Full
  Link                 Type          LPS  days hr:min     m/sec    Flow   Depth
  -----------------------------------------------------------------------------
  WS02003066WSF200     CONDUIT   1001.01     0  01:36      3.05    0.17    0.33
  WS02006287WS02006284 CONDUIT    934.56     0  01:35      2.63    0.43    0.46
  WS02006284WS02006280 CONDUIT    937.46     0  01:34      2.86    0.39    0.44
  WS02006280WS02006229 CONDUIT    964.76     0  01:34      4.53    0.21    0.75
  WS02006229WS02006228 CONDUIT    977.08     0  01:34      1.94    3.24    1.00
  WS02006256WS02006235 CONDUIT    259.49     0  00:18      3.67    2.75    1.00
  WS02006253WS02006251 CONDUIT    276.09     0  01:32      0.83    0.83    1.00
  WS02006252WS02006251 CONDUIT    402.97     0  04:11      3.21    1.48    1.00
  WS02006251WS02006249 CONDUIT    488.19     0  02:40      1.27    1.41    1.00
  WS02006249WS02006248 CONDUIT    417.30     0  05:00      1.13    2.29    1.00
  WS02006248WS02006247 CONDUIT    416.00     0  05:00      1.10    0.91    1.00
  WS02006247WS02006245 CONDUIT    415.91     0  05:00      1.08    3.30    1.00
  WS02006245WS02006243 CONDUIT    416.13     0  05:00      1.08    1.23    1.00
  WS02006243WS02006242 CONDUIT    416.52     0  05:00      1.08    0.89    1.00
  WS02006242WS02006240 CONDUIT    416.77     0  05:00      1.08    1.66    1.00
  WS02006240WS02006239 CONDUIT    417.66     0  05:00      1.09    1.31    1.00
  WS02006239WS02006238 CONDUIT    418.13     0  05:00      1.09    1.34    1.00
  WS02006238WS02006235 CONDUIT    419.51     0  05:00      1.09    0.94    1.00
  WS02006235WS02006234 CONDUIT    524.00     0  07:30      1.36    5.53    1.00
  WS02006234WS02006232 CONDUIT    523.47     0  07:30      1.36    1.06    1.00
  WS02006232WS02006231 CONDUIT    523.29     0  07:31      1.36    1.10    1.00
  WS02006231WS02006230 CONDUIT    523.53     0  07:30      1.36    7.94    1.00
  WS02006230WS02006229 CONDUIT    534.61     0  07:30      1.39   11.90    1.00
  WS02006228WS02006109 CONDUIT    976.85     0  01:34      1.94    4.27    1.00
  WS02006116WS02004401 CONDUIT   1016.23     0  01:34      1.29    1.40    1.00
  WS02006115WS02006116 CONDUIT   1015.92     0  01:34      1.29    1.30    1.00
  WS02006113WS02006111 CONDUIT    977.72     0  01:34      2.66    1.17    1.00
  WS02006112WS02006115 CONDUIT   1015.96     0  01:34      1.29    0.60    1.00
  WS02006111WS02006112 CONDUIT    977.57     0  01:34      1.94    0.46    1.00
  WS02006110WS02006113 CONDUIT    977.96     0  01:34      1.95    0.89    1.00
  WS02006109WS02006110 CONDUIT    977.97     0  01:34      1.95    1.88    1.00
  WS02004411WS02004412 CONDUIT    993.94     0  01:36      1.29    1.41    0.96
  WS02004401WS02004402 CONDUIT   1016.84     0  01:34      1.29    1.22    1.00
  WS02004413WS02003067 CONDUIT    995.93     0  01:35      1.63    0.43    0.73
  WS02004412WS02004413 CONDUIT    995.04     0  01:35      1.28    0.67    0.97
  WS02004410WS02004411 CONDUIT    993.61     0  01:36      1.27    1.36    0.99
  WS02004409WS02004410 CONDUIT   1008.04     0  01:34      1.28    1.30    1.00
  WS02004407WS02004409 CONDUIT   1017.30     0  01:34      1.85    0.36    0.71
  WS02004406WS02004407 CONDUIT   1020.03     0  01:34      1.72    0.46    0.71
  WS02004405WS02004406 CONDUIT   1019.75     0  01:34      1.30    2.01    1.00
  WS02004404WS02004405 CONDUIT   1019.17     0  01:34      1.30    9.99    1.00
  WS02004403WS02004404 CONDUIT   1018.06     0  01:34      1.30    0.74    1.00
  WS02004402WS02004403 CONDUIT   1017.12     0  01:34      1.30    1.46    1.00
  WS02004139WS02001211 CONDUIT    382.76     0  03:15      0.90    0.48    0.65
  WS02004138WS02004139 CONDUIT    394.13     0  00:00      3.62    0.08    0.47
  WS02003067WS02003066 CONDUIT   1000.14     0  01:35      1.71    0.32    0.51
  WS02001213WS02003059 CONDUIT    397.99     0  03:14      0.89    0.66    0.88
  WS02001212WS02001213 CONDUIT    395.22     0  03:15      1.32    0.61    0.57
  WS02001211WS02001212 CONDUIT    392.84     0  03:15      0.78    0.30    0.72
  WS02003072WS02003073 CONDUIT   1378.75     0  01:44      1.99    2.98    0.59
  WS02003069WS02003072 CONDUIT   1378.88     0  01:43      1.84    0.66    0.63
  WS02003060WS02003069 CONDUIT   1378.38     0  01:42      2.04    0.54    0.58
  WS02003059WS02003060 CONDUIT    401.28     0  03:14      0.95    0.26    0.79
  HS02004901HS02004770 CONDUIT     47.75     0  01:32      0.11    0.18    0.61
  HS02004876HS02004881 CONDUIT    177.06     0  01:33      1.41    1.88    0.19
  HS02004870HS02004876 CONDUIT    143.30     0  01:35      0.95    0.10    0.22
  HS02004842HS02004848 CONDUIT     21.86     0  01:49      0.09    0.01    0.35
  HS02004837HS02004842 CONDUIT     22.38     0  01:49      0.42    0.01    0.37
  HS02004830HS02004837 CONDUIT     81.97     0  01:35      0.70    0.08    0.18
  HS02004824HS02004830 CONDUIT     82.88     0  01:37      0.63    0.11    0.25
  HS02004817HS02004824 CONDUIT    165.99     0  01:39      0.37    0.07    0.64
  HS02004770HS02004777 CONDUIT    244.63     0  01:32      0.57    0.45    0.62
  HS02004799HS02004480 CONDUIT    605.42     0  01:33      1.21    0.76    0.71
  HS02004792HS02004799 CONDUIT    554.25     0  01:33      1.36    0.34    0.58
  HS02004788HS02004792 CONDUIT    319.85     0  01:34      1.40    0.21    0.33
  HS02004785HS02004788 CONDUIT    244.45     0  01:33      1.02    1.84    0.34
  HS02004777HS02004785 CONDUIT    244.32     0  01:33      0.67    0.30    0.52
  HS02004480HS02004478 CONDUIT    712.98     0  01:33      1.74    3.00    0.59
  HS02004479HS02004480 CONDUIT    107.65     0  01:33      0.45    0.10    0.68
  HS02004862HS02004870 CONDUIT    109.57     0  01:36      0.90    0.12    0.17
  HS02004848HS02004852 CONDUIT     51.63     0  01:36      0.58    0.06    0.13
  HS02004856HS02004862 CONDUIT     76.86     0  01:35      0.67    0.08    0.16
  HS02004852HS02004856 CONDUIT     51.73     0  01:36      0.39    0.06    0.19
  HS02004802HS02004478 CONDUIT    227.64     0  01:38      0.57    0.20    0.58
  HS02004478WS02006287 CONDUIT    934.64     0  01:35      2.37    0.26    0.44
  HS02004817HS02004807 CONDUIT    166.69     0  01:39      0.30    0.10    0.81
  HS02004807HS02004802 CONDUIT    226.44     0  01:37      0.51    0.43    0.64
  YS02001759YS02001757 CONDUIT    897.31     0  01:42      1.14    0.64    1.00
  YS02001762YS02001759 CONDUIT    369.37     0  01:35      0.47    0.43    1.00
  YS02001765YS02001762 CONDUIT    370.09     0  01:35      0.47    0.35    1.00
  YS02001770YS02001767 CONDUIT    370.24     0  01:35      0.50    1.47    1.00
  YS02001774YS02001770 CONDUIT    851.17     0  02:48      1.08    0.54    1.00
  YS02001779YS02001774 CONDUIT    851.17     0  02:45      1.08    0.43    1.00
  YS02001649YS02001757 CONDUIT    885.83     0  01:38      1.13    0.54    1.00
  YS02001767YS02001765 CONDUIT    370.33     0  01:35      0.48    0.47    1.00
  YS02006561YS02001783 CONDUIT   1025.21     0  01:31      2.27    0.53    1.00
  YS02001783YS02001784 CONDUIT   1026.02     0  01:31      2.04    1.41    1.00
  YS02001784YS02001785 CONDUIT   1026.96     0  01:31      2.08    2.39    1.00
  YS02001788YS02001790 CONDUIT    984.05     0  01:50      2.45    0.73    1.00
  YS02001790YS02001791 CONDUIT    984.07     0  02:01      2.98    1.07    1.00
  YS02001791YS02001793 CONDUIT    984.51     0  01:50      5.83    0.42    1.00
  YS02001910YS02001907 CONDUIT    911.57     0  03:01      1.16    0.51    1.00
  YS02001786YS02001788 CONDUIT   1009.53     0  01:31      2.31    1.95    1.00
  YS02001915YS02001910 CONDUIT    911.28     0  03:01      1.16    0.45    1.00
  YS02001918YS02001915 CONDUIT    431.26     0  01:32      0.56    0.24    1.00
  YS02001923YS02001920 CONDUIT    403.02     0  01:33      0.91    0.18    1.00
  YS02001926YS02001923 CONDUIT    474.22     0  01:33      1.00    0.68    1.00
  YS02001929YS02001926 CONDUIT    352.43     0  03:01      1.07    0.17    1.00
  YS02001920YS02001918 CONDUIT    415.27     0  01:32      0.85    0.40    1.00
  YS02001629YS02163301 CONDUIT    278.50     0  01:26      0.35    0.34    1.00
  YS02001619YS02001622 CONDUIT    574.86     0  03:01      0.86    0.85    1.00
  YS02001622YS02001625 CONDUIT    575.15     0  03:01      0.73    0.31    1.00
  YS02001625YS02001629 CONDUIT    261.06     0  01:26      0.40    0.12    1.00
  YS02163301YS02001633 CONDUIT    281.04     0  01:26      0.36    0.26    1.00
  YS02163601YS02164001 CONDUIT    456.91     0  01:28      0.58    0.40    1.00
  YS02164001YS02001641 CONDUIT    457.15     0  01:28      0.58    0.62    1.00
  YS02001641YS02001644 CONDUIT    458.58     0  01:28      0.58    1.48    1.00
  YS02001647YS02001649 CONDUIT    846.70     0  03:22      1.08    0.45    1.00
  YS02006553YS02006556 CONDUIT    731.44     0  04:02      0.93    0.63    1.00
  YS02006556YS02006558 CONDUIT    731.65     0  04:02      0.93    0.58    1.00
  YSB6556YSB1171       CONDUIT     59.52     0  01:34      0.17    0.06    0.88
  YS02001907YS02006553 CONDUIT    731.15     0  04:02      0.81    0.86    1.00
  YS02006558YS02006561 CONDUIT   1061.67     0  01:32      3.77    2.35    1.00
  YS02001633YS02163601 CONDUIT    457.82     0  01:28      0.58    0.48    1.00
  YS02001644YS02001647 CONDUIT    846.70     0  02:29      1.08    0.50    1.00
  YS02001745YS02001748 CONDUIT    667.52     0  03:01      1.86    0.26    1.00
  YS02001748YS02001751 CONDUIT    667.83     0  03:01      1.39    0.34    1.00
  YS02001751YS02001754 CONDUIT    668.40     0  03:01      1.15    0.32    1.00
  YS02001754YS02001757 CONDUIT    669.11     0  03:01      0.85    0.27    1.00
  YS02001882YS02001884 CONDUIT     39.35     0  01:30      0.22    0.05    1.00
  YS02001884YS02001887 CONDUIT     58.94     0  01:29      0.16    0.08    1.00
  YS02001890YS02001895 CONDUIT    594.51     0  01:32      0.76    0.28    1.00
  YS02001895YS02001898 CONDUIT    598.26     0  01:32      0.76    1.04    1.00
  YS02001898YS02001901 CONDUIT    602.78     0  01:32      0.77    0.39    1.00
  YS02001901YS02001904 CONDUIT    603.97     0  01:32      0.77    0.94    1.00
  YS02001904YS02001907 CONDUIT    605.56     0  01:32      0.77    0.21    1.00
  YS02001887YS02001890 CONDUIT    816.19     0  01:57      1.04    1.40    1.00
  YS02001652YS02001649 CONDUIT    639.70     0  03:01      0.84    0.32    1.00
  YS02001655YS02001652 CONDUIT    639.59     0  03:01      1.25    0.31    1.00
  YS02001658YS02001655 CONDUIT    639.24     0  03:01      1.61    0.27    1.00
  YS02001661YS02001658 CONDUIT    638.98     0  03:01      1.99    0.25    1.00
  YS02001664YS02001661 CONDUIT    794.56     0  01:40      1.90    0.25    0.84
  YSB1154YSB6556       CONDUIT     59.43     0  01:33      0.17    0.11    0.84
  YSB1174YSB1171       CONDUIT     50.31     0  01:30      0.14    0.08    0.92
  YSB1171HS02004479    CONDUIT    107.71     0  01:33      0.54    0.07    0.78
  HS02004881HS02006253 CONDUIT    272.50     0  01:32      2.77    0.05    0.56
  YS02001793JiankangQianchi CONDUIT   1029.56     0  01:30     16.76    0.08    1.00
  YS02001757CaochengTiaoxuchi CONDUIT   2183.40     0  01:41      3.80    0.96    1.00
  WSF200WS02003060     CONDUIT   1004.74     0  01:36      2.05    0.22    0.46
  1                    CONDUIT   1381.41     0  01:43      3.62    0.48    0.49
  CC-Pump-1            PUMP       200.00     0  02:10              1.00
  CC-Pump-2            PUMP       200.00     0  04:10              1.00
  JK-Pump-1            PUMP       300.00     0  01:40              1.00
  JK-Pump-2            PUMP       683.00     0  01:40              1.00
  XR-Pump-1            PUMP        95.00     0  00:00              1.00
  XR-Pump-2            PUMP        95.00     0  00:00              1.00
  XR-Pump-3            PUMP        95.00     0  00:00              1.00
  XR-Pump-4            PUMP        95.00     0  00:00              1.00
  
  
  ***************************
  Flow Classification Summary
  ***************************
  
  -------------------------------------------------------------------------------------
                      Adjusted    ---------- Fraction of Time in Flow Class ---------- 
                       /Actual         Up    Down  Sub   Sup   Up    Down  Norm  Inlet 
  Conduit               Length    Dry  Dry   Dry   Crit  Crit  Crit  Crit  Ltd   Ctrl  
  -------------------------------------------------------------------------------------
  WS02003066WSF200        1.00   0.01  0.03  0.00  0.00  0.97  0.00  0.00  0.37  0.00
  WS02006287WS02006284    1.00   0.03  0.01  0.00  0.61  0.35  0.00  0.00  0.61  0.00
  WS02006284WS02006280    1.00   0.04  0.00  0.00  0.00  0.00  0.00  0.96  0.00  0.00
  WS02006280WS02006229    1.00   0.04  0.00  0.00  0.05  0.09  0.00  0.82  0.05  0.00
  WS02006229WS02006228    1.00   0.00  0.00  0.00  1.00  0.00  0.00  0.00  0.00  0.00
  WS02006256WS02006235    1.00   0.01  0.00  0.00  0.99  0.00  0.00  0.00  0.00  0.00
  WS02006253WS02006251    1.00   0.02  0.02  0.00  0.96  0.00  0.01  0.00  0.00  0.00
  WS02006252WS02006251    1.00   0.08  0.00  0.00  0.32  0.01  0.60  0.00  0.00  0.00
  WS02006251WS02006249    1.00   0.00  0.00  0.00  1.00  0.00  0.00  0.00  0.13  0.00
  WS02006249WS02006248    1.00   0.00  0.00  0.00  0.95  0.00  0.04  0.00  0.00  0.00
  WS02006248WS02006247    1.00   0.01  0.00  0.00  0.99  0.00  0.00  0.01  0.04  0.00
  WS02006247WS02006245    1.00   0.01  0.00  0.00  0.98  0.00  0.00  0.01  0.00  0.00
  WS02006245WS02006243    1.00   0.01  0.00  0.00  0.97  0.00  0.00  0.02  0.01  0.00
  WS02006243WS02006242    1.00   0.01  0.00  0.00  0.99  0.00  0.00  0.00  0.10  0.00
  WS02006242WS02006240    1.00   0.01  0.00  0.00  0.99  0.00  0.01  0.00  0.00  0.00
  WS02006240WS02006239    1.00   0.01  0.00  0.00  0.97  0.00  0.00  0.03  0.01  0.00
  WS02006239WS02006238    1.00   0.01  0.00  0.00  0.99  0.00  0.00  0.00  0.06  0.00
  WS02006238WS02006235    1.00   0.01  0.00  0.00  0.99  0.00  0.00  0.00  0.00  0.00
  WS02006235WS02006234    1.00   0.01  0.00  0.00  0.98  0.00  0.01  0.00  0.00  0.00
  WS02006234WS02006232    1.00   0.01  0.00  0.00  0.99  0.00  0.00  0.00  0.01  0.00
  WS02006232WS02006231    1.00   0.01  0.00  0.00  0.99  0.00  0.00  0.00  0.00  0.00
  WS02006231WS02006230    1.00   0.01  0.00  0.00  0.87  0.00  0.12  0.00  0.00  0.00
  WS02006230WS02006229    1.00   0.00  0.00  0.00  0.99  0.00  0.00  0.01  0.00  0.00
  WS02006228WS02006109    1.00   0.00  0.00  0.00  1.00  0.00  0.00  0.00  0.00  0.00
  WS02006116WS02004401    1.00   0.01  0.00  0.00  0.98  0.00  0.00  0.00  0.00  0.00
  WS02006115WS02006116    1.00   0.01  0.00  0.00  0.98  0.00  0.00  0.00  0.00  0.00
  WS02006113WS02006111    1.00   0.01  0.00  0.00  0.15  0.84  0.00  0.00  0.12  0.00
  WS02006112WS02006115    1.00   0.01  0.00  0.00  0.98  0.00  0.00  0.00  0.00  0.00
  WS02006111WS02006112    1.00   0.01  0.00  0.00  0.99  0.00  0.00  0.00  0.68  0.00
  WS02006110WS02006113    1.00   0.00  0.01  0.00  0.99  0.00  0.00  0.00  0.00  0.00
  WS02006109WS02006110    1.00   0.00  0.00  0.00  0.99  0.00  0.00  0.00  0.00  0.00
  WS02004411WS02004412    1.00   0.02  0.00  0.00  0.98  0.00  0.00  0.00  0.00  0.00
  WS02004401WS02004402    1.00   0.02  0.00  0.00  0.98  0.00  0.00  0.00  0.00  0.00
  WS02004413WS02003067    1.00   0.02  0.00  0.00  0.00  0.00  0.97  0.00  0.00  0.00
  WS02004412WS02004413    1.00   0.02  0.00  0.00  0.98  0.00  0.00  0.00  0.00  0.00
  WS02004410WS02004411    1.00   0.02  0.00  0.00  0.98  0.00  0.00  0.00  0.00  0.00
  WS02004409WS02004410    1.00   0.02  0.00  0.00  0.98  0.00  0.00  0.00  0.00  0.00
  WS02004407WS02004409    1.00   0.02  0.00  0.00  0.98  0.00  0.00  0.00  0.92  0.00
  WS02004406WS02004407    1.00   0.00  0.02  0.00  0.98  0.00  0.00  0.00  0.00  0.00
  WS02004405WS02004406    1.00   0.00  0.00  0.00  1.00  0.00  0.00  0.00  0.03  0.00
  WS02004404WS02004405    1.00   0.00  0.00  0.00  1.00  0.00  0.00  0.00  0.00  0.00
  WS02004403WS02004404    1.00   0.00  0.02  0.00  0.98  0.00  0.00  0.00  0.00  0.00
  WS02004402WS02004403    1.00   0.02  0.00  0.00  0.98  0.00  0.00  0.00  0.00  0.00
  WS02004139WS02001211    1.00   0.00  0.00  0.00  1.00  0.00  0.00  0.00  0.00  0.00
  WS02004138WS02004139    1.00   0.00  0.00  0.00  1.00  0.00  0.00  0.00  1.00  0.00
  WS02003067WS02003066    1.00   0.03  0.00  0.00  0.97  0.00  0.00  0.00  0.00  0.00
  WS02001213WS02003059    1.00   0.00  0.00  0.00  1.00  0.00  0.00  0.00  0.00  0.00
  WS02001212WS02001213    1.00   0.00  0.00  0.00  0.93  0.00  0.07  0.00  0.00  0.00
  WS02001211WS02001212    1.00   0.00  0.00  0.00  1.00  0.00  0.00  0.00  0.00  0.00
  WS02003072WS02003073    1.00   0.00  0.00  0.00  0.00  0.00  0.00  1.00  0.00  0.00
  WS02003069WS02003072    1.00   0.00  0.00  0.00  1.00  0.00  0.00  0.00  0.09  0.00
  WS02003060WS02003069    1.00   0.00  0.00  0.00  0.99  0.01  0.00  0.00  0.08  0.00
  WS02003059WS02003060    1.00   0.00  0.00  0.00  1.00  0.00  0.00  0.00  0.00  0.00
  HS02004901HS02004770    1.00   0.04  0.00  0.00  0.96  0.00  0.00  0.00  0.00  0.00
  HS02004876HS02004881    1.00   0.00  0.00  0.00  0.83  0.17  0.00  0.00  0.00  0.00
  HS02004870HS02004876    1.00   0.00  0.00  0.00  1.00  0.00  0.00  0.00  0.95  0.00
  HS02004842HS02004848    1.00   0.00  0.04  0.00  0.96  0.00  0.00  0.00  0.53  0.00
  HS02004837HS02004842    1.00   0.00  0.00  0.00  1.00  0.00  0.00  0.00  0.11  0.00
  HS02004830HS02004837    1.00   0.00  0.00  0.00  1.00  0.00  0.00  0.00  0.99  0.00
  HS02004824HS02004830    1.00   0.00  0.00  0.00  1.00  0.00  0.00  0.00  0.03  0.00
  HS02004817HS02004824    1.00   0.00  0.00  0.00  1.00  0.00  0.00  0.00  0.86  0.00
  HS02004770HS02004777    1.00   0.00  0.04  0.00  0.96  0.00  0.00  0.00  0.01  0.00
  HS02004799HS02004480    1.00   0.00  0.01  0.00  0.96  0.00  0.03  0.00  0.00  0.00
  HS02004792HS02004799    1.00   0.00  0.00  0.00  1.00  0.00  0.00  0.00  0.98  0.00
  HS02004788HS02004792    1.00   0.00  0.00  0.00  1.00  0.00  0.00  0.00  0.98  0.00
  HS02004785HS02004788    1.00   0.00  0.00  0.00  1.00  0.00  0.00  0.00  0.00  0.00
  HS02004777HS02004785    1.00   0.00  0.00  0.00  1.00  0.00  0.00  0.00  0.10  0.00
  HS02004480HS02004478    1.00   0.04  0.00  0.00  0.69  0.00  0.00  0.27  0.00  0.00
  HS02004479HS02004480    1.00   0.01  0.00  0.00  0.99  0.00  0.00  0.00  0.10  0.00
  HS02004862HS02004870    1.00   0.00  0.00  0.00  1.00  0.00  0.00  0.00  0.02  0.00
  HS02004848HS02004852    1.00   0.04  0.00  0.00  0.96  0.00  0.00  0.00  0.83  0.00
  HS02004856HS02004862    1.00   0.00  0.04  0.00  0.96  0.00  0.00  0.00  0.85  0.00
  HS02004852HS02004856    1.00   0.04  0.00  0.00  0.96  0.00  0.00  0.00  0.69  0.00
  HS02004802HS02004478    1.00   0.04  0.00  0.00  0.96  0.00  0.00  0.00  0.01  0.00
  HS02004478WS02006287    1.00   0.04  0.00  0.00  0.74  0.22  0.00  0.00  0.58  0.00
  HS02004817HS02004807    1.00   0.00  0.04  0.00  0.96  0.00  0.00  0.00  0.01  0.00
  HS02004807HS02004802    1.00   0.04  0.00  0.00  0.96  0.00  0.00  0.00  0.00  0.00
  YS02001759YS02001757    1.00   0.00  0.00  0.00  1.00  0.00  0.00  0.00  0.15  0.00
  YS02001762YS02001759    1.00   0.00  0.00  0.00  1.00  0.00  0.00  0.00  0.01  0.00
  YS02001765YS02001762    1.00   0.00  0.00  0.00  1.00  0.00  0.00  0.00  0.13  0.00
  YS02001770YS02001767    1.00   0.00  0.00  0.00  1.00  0.00  0.00  0.00  0.00  0.00
  YS02001774YS02001770    1.00   0.00  0.04  0.00  0.96  0.00  0.00  0.00  0.01  0.00
  YS02001779YS02001774    1.00   0.00  0.00  0.00  1.00  0.00  0.00  0.00  0.15  0.00
  YS02001649YS02001757    1.00   0.00  0.00  0.00  1.00  0.00  0.00  0.00  0.15  0.00
  YS02001767YS02001765    1.00   0.00  0.00  0.00  1.00  0.00  0.00  0.00  0.00  0.00
  YS02006561YS02001783    1.00   0.05  0.00  0.00  0.49  0.46  0.00  0.00  0.34  0.00
  YS02001783YS02001784    1.00   0.00  0.05  0.00  0.95  0.00  0.00  0.00  0.00  0.00
  YS02001784YS02001785    1.00   0.00  0.00  0.00  1.00  0.00  0.00  0.00  0.15  0.00
  YS02001788YS02001790    1.00   0.00  0.00  0.00  0.56  0.44  0.00  0.00  0.29  0.00
  YS02001790YS02001791    1.00   0.00  0.00  0.00  0.53  0.47  0.00  0.00  0.35  0.00
  YS02001791YS02001793    1.00   0.00  0.00  0.00  0.56  0.44  0.00  0.00  0.02  0.00
  YS02001910YS02001907    1.00   0.00  0.00  0.00  0.99  0.00  0.00  0.01  0.11  0.00
  YS02001786YS02001788    1.00   0.00  0.00  0.00  0.54  0.46  0.00  0.00  0.00  0.00
  YS02001915YS02001910    1.00   0.00  0.00  0.00  0.99  0.01  0.00  0.00  0.12  0.00
  YS02001918YS02001915    1.00   0.00  0.00  0.00  0.99  0.00  0.00  0.00  0.43  0.00
  YS02001923YS02001920    1.00   0.00  0.00  0.00  1.00  0.00  0.00  0.00  0.65  0.00
  YS02001926YS02001923    1.00   0.00  0.02  0.00  0.30  0.00  0.68  0.00  0.00  0.00
  YS02001929YS02001926    1.00   0.00  0.04  0.00  0.96  0.00  0.00  0.00  0.56  0.00
  YS02001920YS02001918    1.00   0.00  0.00  0.00  1.00  0.00  0.00  0.00  0.00  0.00
  YS02001629YS02163301    1.00   0.04  0.00  0.00  0.96  0.00  0.00  0.00  0.00  0.00
  YS02001619YS02001622    1.00   0.04  0.00  0.00  0.96  0.00  0.00  0.00  0.00  0.00
  YS02001622YS02001625    1.00   0.04  0.00  0.00  0.96  0.00  0.00  0.00  0.02  0.00
  YS02001625YS02001629    1.00   0.04  0.01  0.00  0.94  0.00  0.01  0.00  0.00  0.00
  YS02163301YS02001633    1.00   0.00  0.04  0.00  0.96  0.00  0.00  0.00  0.00  0.00
  YS02163601YS02164001    1.00   0.00  0.03  0.00  0.97  0.00  0.00  0.00  0.00  0.00
  YS02164001YS02001641    1.00   0.00  0.02  0.00  0.97  0.00  0.00  0.00  0.05  0.00
  YS02001641YS02001644    1.00   0.00  0.00  0.00  1.00  0.00  0.00  0.00  0.00  0.00
  YS02001647YS02001649    1.00   0.00  0.04  0.00  0.96  0.00  0.00  0.00  0.01  0.00
  YS02006553YS02006556    1.00   0.00  0.00  0.00  1.00  0.00  0.00  0.00  0.03  0.00
  YS02006556YS02006558    1.00   0.00  0.00  0.00  1.00  0.00  0.00  0.00  0.00  0.00
  YSB6556YSB1171          1.00   0.01  0.03  0.00  0.96  0.00  0.00  0.00  0.00  0.00
  YS02001907YS02006553    1.00   0.00  0.01  0.00  0.99  0.00  0.00  0.00  0.00  0.00
  YS02006558YS02006561    1.00   0.05  0.00  0.00  0.29  0.66  0.00  0.00  0.37  0.00
  YS02001633YS02163601    1.00   0.00  0.00  0.00  1.00  0.00  0.00  0.00  0.14  0.00
  YS02001644YS02001647    1.00   0.00  0.04  0.00  0.96  0.00  0.00  0.00  0.00  0.00
  YS02001745YS02001748    1.00   0.00  0.00  0.00  0.93  0.00  0.00  0.06  0.00  0.00
  YS02001748YS02001751    1.00   0.00  0.00  0.00  0.98  0.02  0.00  0.00  0.13  0.00
  YS02001751YS02001754    1.00   0.00  0.00  0.00  0.95  0.00  0.00  0.05  0.01  0.00
  YS02001754YS02001757    1.00   0.00  0.00  0.00  1.00  0.00  0.00  0.00  0.15  0.00
  YS02001882YS02001884    1.00   0.04  0.00  0.00  0.96  0.00  0.00  0.00  0.00  0.00
  YS02001884YS02001887    1.00   0.02  0.01  0.00  0.97  0.00  0.00  0.00  0.00  0.00
  YS02001890YS02001895    1.00   0.00  0.04  0.00  0.96  0.00  0.00  0.00  0.00  0.00
  YS02001895YS02001898    1.00   0.04  0.00  0.00  0.95  0.00  0.01  0.00  0.00  0.00
  YS02001898YS02001901    1.00   0.04  0.00  0.00  0.96  0.00  0.00  0.00  0.00  0.00
  YS02001901YS02001904    1.00   0.04  0.00  0.00  0.96  0.00  0.00  0.00  0.00  0.00
  YS02001904YS02001907    1.00   0.00  0.04  0.00  0.96  0.00  0.00  0.00  0.00  0.00
  YS02001887YS02001890    1.00   0.00  0.00  0.00  0.99  0.00  0.01  0.00  0.00  0.00
  YS02001652YS02001649    1.00   0.00  0.00  0.00  1.00  0.00  0.00  0.00  0.14  0.00
  YS02001655YS02001652    1.00   0.00  0.00  0.00  0.95  0.00  0.00  0.05  0.01  0.00
  YS02001658YS02001655    1.00   0.00  0.04  0.00  0.94  0.02  0.00  0.00  0.01  0.00
  YS02001661YS02001658    1.00   0.04  0.00  0.00  0.93  0.03  0.00  0.00  0.00  0.00
  YS02001664YS02001661    1.00   0.04  0.00  0.00  0.94  0.02  0.00  0.00  0.06  0.00
  YSB1154YSB6556          1.00   0.04  0.00  0.00  0.96  0.00  0.00  0.00  0.01  0.00
  YSB1174YSB1171          1.00   0.02  0.01  0.00  0.97  0.00  0.00  0.00  0.00  0.00
  YSB1171HS02004479       1.00   0.01  0.00  0.00  0.98  0.00  0.00  0.01  0.09  0.00
  HS02004881HS02006253    1.00   0.02  0.00  0.00  0.91  0.01  0.00  0.06  0.80  0.00
  YS02001793JiankangQianchi    1.00   0.00  0.00  0.00  0.72  0.27  0.00  0.00  0.30  0.00
  YS02001757CaochengTiaoxuchi    1.00   0.00  0.05  0.00  0.92  0.03  0.00  0.00  0.00  0.00
  WSF200WS02003060        1.00   0.00  0.01  0.00  0.99  0.00  0.00  0.00  0.20  0.00
  1                       1.00   0.00  0.00  0.00  0.00  1.00  0.00  0.00  0.61  0.00
  
  
  *************************
  Conduit Surcharge Summary
  *************************
  
  ----------------------------------------------------------------------------
                                                           Hours        Hours 
                         --------- Hours Full --------   Above Full   Capacity
  Conduit                Both Ends  Upstream  Dnstream   Normal Flow   Limited
  ----------------------------------------------------------------------------
  WS02006280WS02006229        0.01      0.01      0.01      0.01         0.01
  WS02006229WS02006228        5.38      5.52      5.38      6.24         5.38
  WS02006256WS02006235        6.69      6.69      7.14      5.24         0.01
  WS02006253WS02006251        4.30      4.30      4.39      0.01         0.01
  WS02006252WS02006251        3.80      3.80      4.75      2.94         0.01
  WS02006251WS02006249        4.31      4.32      4.40      2.19         2.02
[...]
  YS02001649YS02001757        6.40      6.40      6.42      0.01         0.01
  YS02001767YS02001765        6.39      6.39      6.40      0.01         0.01
  YS02006561YS02001783        2.42      2.42      2.63      0.01         0.01
  YS02001783YS02001784        2.60      2.63      2.60      2.88         2.60
  YS02001784YS02001785        2.52      2.60      2.52      3.60         2.52
  YS02001788YS02001790        2.47      2.47      3.26      0.01         0.01
  YS02001790YS02001791        3.25      3.26      3.35      2.57         2.55
  YS02001791YS02001793        3.35      3.35      3.70      0.01         0.01
  YS02001910YS02001907        2.67      2.67      3.13      0.01         0.01
  YS02001786YS02001788        2.47      2.52      2.47      3.25         2.47
  YS02001915YS02001910        2.54      2.54      2.67      0.01         0.01
  YS02001918YS02001915        2.40      2.40      2.54      0.01         0.01
  YS02001923YS02001920        2.24      2.24      2.42      0.01         0.01
  YS02001926YS02001923        0.01      0.01      0.01      0.01         0.01
  YS02001929YS02001926        0.01      0.01      0.01      0.01         0.01
  YS02001920YS02001918        2.40      2.40      2.42      0.01         0.01
  YS02001629YS02163301        6.38      6.38      6.39      0.01         0.01
  YS02001619YS02001622        6.37      6.37      6.37      0.01         0.04
  YS02001622YS02001625        6.37      6.37      6.38      0.01         0.01
  YS02001625YS02001629        6.37      6.37      6.38      0.01         0.01
  YS02163301YS02001633        6.39      6.39      6.40      0.01         0.01
  YS02163601YS02164001        6.40      6.40      6.40      0.01         0.01
  YS02164001YS02001641        6.40      6.40      6.40      0.01         0.02
  YS02001641YS02001644        6.40      6.40      6.40      3.17         3.21
  YS02001647YS02001649        6.38      6.38      6.40      0.01         0.01
  YS02006553YS02006556        2.84      2.84      3.20      0.01         0.01
  YS02006556YS02006558        2.94      2.94      3.26      0.01         0.01
  YSB6556YSB1171              0.01      0.01      0.58      0.01         0.01
  YS02001907YS02006553        3.66      3.66      3.87      0.01         0.01
  YS02006558YS02006561        2.49      2.81      2.49      3.49         2.49
  YS02001633YS02163601        6.40      6.40      6.40      0.01         0.01
  YS02001644YS02001647        6.38      6.38      6.40      0.01         0.01
  YS02001745YS02001748        0.98      0.98      6.35      0.01         0.01
  YS02001748YS02001751        6.35      6.35      6.36      0.01         0.01
  YS02001751YS02001754        6.36      6.36      6.38      0.01         0.01
  YS02001754YS02001757        6.38      6.38      6.42      0.01         0.01
  YS02001882YS02001884        2.54      2.54      2.56      0.01         0.01
  YS02001884YS02001887        2.60      2.60      2.62      0.01         0.01
  YS02001890YS02001895        2.53      2.53      2.68      0.01         0.01
  YS02001895YS02001898        2.51      2.51      2.53      0.01         0.01
  YS02001898YS02001901        2.53      2.53      2.59      0.01         0.01
  YS02001901YS02001904        2.57      2.57      2.59      0.01         0.01
  YS02001904YS02001907        2.57      2.57      3.22      0.01         0.01
  YS02001887YS02001890        2.64      2.64      2.66      1.66         0.01
  YS02001652YS02001649        6.38      6.38      6.40      0.01         0.01
  YS02001655YS02001652        6.37      6.37      6.38      0.01         0.01
  YS02001658YS02001655        6.35      6.35      6.37      0.01         0.01
  YS02001661YS02001658        1.46      1.46      6.35      0.01         0.01
  YS02001664YS02001661        0.01      0.01      2.45      0.01         0.01
  YSB1174YSB1171              0.01      0.01      0.32      0.01         0.01
  HS02004881HS02006253        0.01      0.01      3.19      0.01         0.01
  YS02001793JiankangQianchi        3.61      3.61      5.14      0.01         0.01
  YS02001757CaochengTiaoxuchi        5.98      5.98      6.42      0.01         0.01
  
  
  ***************
  Pumping Summary
  ***************
  
  ---------------------------------------------------------------------------------------------------------
                                                  Min       Avg       Max     Total     Power    % Time Off
                        Percent   Number of      Flow      Flow      Flow    Volume     Usage    Pump Curve
  Pump                 Utilized   Start-Ups       LPS       LPS       LPS  10^6 ltr     Kw-hr    Low   High
  ---------------------------------------------------------------------------------------------------------
  CC-Pump-1               74.46           1      0.00    192.10    200.00     4.020      4.36    0.0    0.0
  CC-Pump-2               48.92           6      0.00    111.32    200.00     1.920      2.63    0.0    0.0
  JK-Pump-1               70.22           4      0.00    243.93    300.00     5.014     62.09    0.0    0.0
  JK-Pump-2               59.57           3      0.00    508.48    683.00     9.263    101.52    0.0   98.0
  XR-Pump-1              100.00           1      0.00     95.00     95.00     2.679     20.99    0.0    0.0
  XR-Pump-2              100.00           1      0.00     95.00     95.00     2.679     20.99    0.0    0.0
  XR-Pump-3               93.63           2      0.00     93.88     95.00     2.451     15.94    0.0    0.0
  XR-Pump-4               93.63           2      0.00     93.88     95.00     2.451     15.94    0.0    0.0
  
  
  ***************************
  Link Pollutant Load Summary
  ***************************
  
  ------------------------------------------------------------------------------------------
                                 COD            SS            TN            TP         NH4-N
  Link                            kg            kg            kg            kg            kg
  ------------------------------------------------------------------------------------------
  WS02003066WSF200          1543.076      3011.537        35.515         2.871        18.029
  WS02006287WS02006284       662.651      1308.494        17.243         1.527         9.013
  WS02006284WS02006280       663.105      1309.202        17.290         1.533         9.042
  WS02006280WS02006229       663.195      1309.483        17.289         1.533         9.041
  WS02006229WS02006228      1528.550      2981.804        34.755         2.775        17.573
  WS02006256WS02006235       285.876       546.629         6.063         0.452         3.013
  WS02006253WS02006251       127.238       257.517         2.735         0.201         1.342
  WS02006252WS02006251       637.718      1240.883        12.304         0.845         5.937
  WS02006251WS02006249       758.177      1485.854        14.911         1.038         7.219
  WS02006249WS02006248       615.840      1199.551        12.164         0.847         5.897
  WS02006248WS02006247       620.905      1209.231        12.289         0.858         5.963
  WS02006247WS02006245       619.441      1205.667        12.269         0.857         5.955
  WS02006245WS02006243       618.384      1202.989        12.257         0.857         5.951
  WS02006243WS02006242       617.341      1200.108        12.247         0.857         5.948
  WS02006242WS02006240       615.369      1195.437        12.215         0.855         5.934
  WS02006240WS02006239       614.590      1193.424        12.200         0.855         5.927
  WS02006239WS02006238       614.681      1193.481        12.196         0.854         5.925
  WS02006238WS02006235       614.516      1193.138        12.181         0.853         5.916
  WS02006235WS02006234       873.174      1687.427        17.668         1.260         8.638
  WS02006234WS02006232       875.869      1692.893        17.738         1.266         8.675
  WS02006232WS02006231       878.817      1698.902        17.812         1.273         8.714
  WS02006231WS02006230       882.257      1705.986        17.896         1.281         8.758
  WS02006230WS02006229       886.569      1715.081        17.988         1.289         8.804
  WS02006228WS02006109      1527.811      2980.522        34.732         2.773        17.560
  WS02006116WS02004401      1558.276      3038.683        35.887         2.900        18.218
  WS02006115WS02006116      1559.608      3041.106        35.925         2.903        18.238
  WS02006113WS02006111      1534.307      2990.923        35.471         2.868        18.027
  WS02006112WS02006115      1561.000      3043.675        35.967         2.907        18.261
  WS02006111WS02006112      1533.374      2988.998        35.448         2.866        18.015
  WS02006110WS02006113      1534.705      2991.482        35.487         2.869        18.036
  WS02006109WS02006110      1535.707      2993.089        35.532         2.874        18.062
  WS02004411WS02004412      1547.605      3019.536        35.656         2.884        18.105
  WS02004401WS02004402      1556.948      3036.266        35.847         2.896        18.196
  WS02004413WS02003067      1544.377      3013.841        35.552         2.874        18.048
  WS02004412WS02004413      1545.799      3016.354        35.601         2.879        18.076
  WS02004410WS02004411      1549.140      3022.243        35.702         2.888        18.130
  WS02004409WS02004410      1550.548      3024.733        35.744         2.892        18.153
  WS02004407WS02004409      1551.827      3026.975        35.782         2.895        18.173
  WS02004406WS02004407      1552.193      3027.542        35.792         2.896        18.178
  WS02004405WS02004406      1553.831      3030.413        35.853         2.902        18.212
  WS02004404WS02004405      1555.098      3032.721        35.867         2.902        18.217
  WS02004403WS02004404      1554.687      3032.200        35.780         2.890        18.160
  WS02004402WS02004403      1555.757      3034.134        35.812         2.893        18.178
  WS02004139WS02001211      1288.471      2236.077        86.831        10.269        52.586
  WS02004138WS02004139      1294.059      2245.701        87.200        10.313        52.809
  WS02003067WS02003066      1543.320      3011.964        35.523         2.872        18.033
  WS02001213WS02003059      1323.000      2289.833        90.511        10.735        54.904
  WS02001212WS02001213      1331.525      2304.294        91.131        10.810        55.282
  WS02001211WS02001212      1333.431      2307.442        91.287        10.829        55.378
  WS02003072WS02003073      2965.568      5458.864       136.135        14.880        79.275
  WS02003069WS02003072      2970.587      5467.153       136.527        14.927        79.516
  WS02003060WS02003069      2973.505      5472.299       136.644        14.939        79.583
  WS02003059WS02003060      1320.258      2284.991        90.359        10.718        54.814
  HS02004901HS02004770        31.241        62.186         0.612         0.047         0.291
  HS02004876HS02004881       101.413       206.328         2.154         0.154         1.046
  HS02004870HS02004876        77.887       158.594         1.699         0.122         0.826
  HS02004842HS02004848        14.996        29.644         0.314         0.022         0.147
  HS02004837HS02004842        19.708        37.152         0.788         0.082         0.444
  HS02004830HS02004837       101.807       187.058         5.289         0.600         3.141
  HS02004824HS02004830       102.663       188.507         5.364         0.610         3.188
  HS02004817HS02004824       158.470       303.824         6.498         0.682         3.738
  HS02004770HS02004777       119.649       241.820         2.495         0.175         1.169
  HS02004799HS02004480       374.828       742.456         8.578         0.702         4.270
  HS02004792HS02004799       343.091       676.955         8.002         0.666         3.998
  HS02004788HS02004792       180.020       356.949         4.687         0.402         2.399
  HS02004785HS02004788       121.032       244.028         2.637         0.193         1.259
  HS02004777HS02004785       120.352       242.949         2.575         0.185         1.220
  HS02004480HS02004478       464.820       922.695        10.234         0.827         5.069
  HS02004479HS02004480        93.772       186.479         1.955         0.161         0.984
  HS02004862HS02004870        60.203       121.270         1.340         0.100         0.653
  HS02004848HS02004852        26.761        53.672         0.548         0.038         0.256
  HS02004856HS02004862        41.868        85.060         0.850         0.058         0.403
  HS02004852HS02004856        26.785        53.715         0.548         0.038         0.257
  HS02004802HS02004478       198.965       387.634         7.079         0.709         3.985
  HS02004478WS02006287       662.734      1308.536        17.260         1.529         9.023
  HS02004817HS02004807       157.288       302.058         6.359         0.664         3.650
  HS02004807HS02004802       198.931       387.536         7.104         0.712         4.002
  YS02001759YS02001757       613.449      1184.383        11.995         0.849         5.850
  YS02001762YS02001759       354.204       678.897         7.188         0.511         3.527
  YS02001765YS02001762       355.168       682.154         7.216         0.513         3.543
  YS02001770YS02001767       362.036       699.362         7.226         0.506         3.528
  YS02001774YS02001770       811.335      1616.543        15.857         1.083         7.700
  YS02001779YS02001774       810.470      1614.969        15.912         1.093         7.741
  YS02001649YS02001757       666.215      1293.955        13.139         0.908         6.341
  YS02001767YS02001765       357.686       688.540         7.267         0.517         3.569
  YS02006561YS02001783      1600.321      3069.189        33.124         2.426        16.337
  YS02001783YS02001784      1600.205      3069.019        33.119         2.426        16.334
  YS02001784YS02001785      1607.612      3080.941        33.833         2.515        16.780
  YS02001788YS02001790      1608.240      3081.997        33.904         2.524        16.825
  YS02001790YS02001791      1609.349      3083.846        34.005         2.537        16.888
  YS02001791YS02001793      1609.262      3083.663        34.001         2.536        16.886
  YS02001910YS02001907       952.166      1849.922        20.362         1.454        10.129
  YS02001786YS02001788      1607.850      3081.365        33.861         2.519        16.798
  YS02001915YS02001910       951.645      1848.876        20.314         1.447        10.097
  YS02001918YS02001915       473.353       888.366        10.561         0.858         5.403
  YS02001923YS02001920       447.790       844.420         8.527         0.612         4.148
  YS02001926YS02001923       444.660       838.732         8.404         0.599         4.078
  YS02001929YS02001926       441.910       833.832         8.304         0.589         4.021
  YS02001920YS02001918       468.869       878.895        10.464         0.852         5.355
  YS02001629YS02163301       210.687       398.529         4.146         0.295         1.983
  YS02001619YS02001622       451.033       868.463         9.084         0.615         4.291
  YS02001622YS02001625       450.713       868.044         9.072         0.614         4.286
  YS02001625YS02001629       205.054       387.514         4.046         0.287         1.933
  YS02163301YS02001633       216.424       409.776         4.246         0.304         2.033
  YS02163601YS02164001       715.942      1349.526        13.900         1.022         6.717
  YS02164001YS02001641       716.624      1350.761        13.900         1.021         6.715
  YS02001641YS02001644       719.019      1355.092        13.935         1.023         6.731
  YS02001647YS02001649       833.005      1608.749        16.578         1.168         7.940
  YS02006553YS02006556       809.790      1515.659        17.525         1.317         8.769
  YS02006556YS02006558       810.274      1516.589        17.492         1.311         8.745
  YSB6556YSB1171              54.544       108.518         1.086         0.087         0.541
  YS02001907YS02006553       809.598      1515.261        17.570         1.324         8.799
  YS02006558YS02006561      1600.257      3069.034        33.124         2.426        16.336
  YS02001633YS02163601       716.480      1350.406        13.876         1.017         6.698
  YS02001644YS02001647       841.441      1625.067        16.718         1.179         8.008
  YS02001745YS02001748       597.860      1178.507        11.860         0.761         5.723
  YS02001748YS02001751       597.400      1177.760        11.871         0.763         5.732
  YS02001751YS02001754       596.720      1176.661        11.860         0.763         5.728
  YS02001754YS02001757       597.914      1178.572        12.029         0.786         5.836
  YS02001882YS02001884         3.992         7.220         0.074         0.006         0.036
  YS02001884YS02001887         8.286        15.250         0.152         0.012         0.075
  YS02001890YS02001895       827.176      1598.374        15.723         1.198         7.699
  YS02001895YS02001898       827.021      1598.218        15.716         1.197         7.695
  YS02001898YS02001901       826.777      1597.744        15.711         1.197         7.693
  YS02001901YS02001904       826.722      1597.688        15.727         1.199         7.704
  YS02001904YS02001907       826.992      1598.053        15.785         1.207         7.741
  YS02001887YS02001890      1075.790      2094.682        20.306         1.549         9.938
  YS02001652YS02001649       543.447      1052.716        10.828         0.791         5.114
  YS02001655YS02001652       543.823      1053.360        10.839         0.792         5.119
  YS02001658YS02001655       543.260      1052.509        10.751         0.780         5.062
  YS02001661YS02001658       543.564      1053.021        10.759         0.780         5.066
  YS02001664YS02001661       555.015      1070.932        11.048         0.800         5.199
  YSB1154YSB6556              54.069       107.774         1.038         0.081         0.511
  YSB1174YSB1171              37.703        75.532         0.747         0.059         0.368
  YSB1171HS02004479           93.613       186.168         1.960         0.162         0.989
  HS02004881HS02006253       114.070       232.701         2.385         0.169         1.156
  YS02001793JiankangQianchi      1609.349      3083.810        33.982         2.534        16.873
  YS02001757CaochengTiaoxuchi       915.110      1751.331        18.158         1.248         8.789
  WSF200WS02003060          1542.430      3010.418        35.500         2.870        18.022
  1                         2970.424      5465.362       137.029        14.999        79.853
  CC-Pump-1                  432.399       841.663         8.332         0.573         4.020
  CC-Pump-2                  205.111       398.756         3.969         0.272         1.916
  JK-Pump-1                  453.971       876.762         9.405         0.695         4.648
  JK-Pump-2                  997.934      1936.801        20.424         1.501        10.067
  XR-Pump-1                  349.414       602.949        24.261         2.885        14.739
  XR-Pump-2                  349.414       602.949        24.261         2.885        14.739
  XR-Pump-3                  299.386       522.889        19.471         2.287        11.747
  XR-Pump-4                  299.386       522.889        19.471         2.287        11.747
  

  Analysis begun on:  Wed Jul 14 13:22:12 2021
  Analysis ended on:  Wed Jul 14 13:22:15 2021
  Total elapsed time: 00:00:03