
  EPA STORM WATER MANAGEMENT MODEL - VERSION 5.1 (Build 5.3.0.dev0)
  --------------------------------------------------------------

  WARNING 04: minimum elevation drop used for Conduit WS02004404WS02004405
  WARNING 03: negative offset ignored for Link YS02001904YS02001907
  
  *********************************************************
  NOTE: The summary statistics displayed in this report are
  based on results found at every computational time step,  
  not just on results from each reporting time step.
  *********************************************************
  
  ****************
  Analysis Options
  ****************
  Flow Units ............... LPS
  Process Models:
    Rainfall/Runoff ........ YES
    RDII ................... NO
    Snowmelt ............... NO
    Groundwater ............ NO
    Flow Routing ........... YES
    Ponding Allowed ........ NO
    Water Quality .......... YES
  Infiltration Method ...... HORTON
  Flow Routing Method ...... DYNWAVE
  Surcharge Method ......... EXTRAN
  Starting Date ............ 08/28/2015 08:00:00
  Ending Date .............. 08/28/2015 15:50:00
  Antecedent Dry Days ...... 8.0
  Report Time Step ......... 00:01:00
  Wet Time Step ............ 00:01:00
  Dry Time Step ............ 00:01:00
  Routing Time Step ........ 5.00 sec
  Variable Time Step ....... YES
  Maximum Trials ........... 8
  Number of Threads ........ 4
  Head Tolerance ........... 0.001500 m
  
  
  **************************        Volume         Depth
  Runoff Quantity Continuity     hectare-m            mm
  **************************     ---------       -------
  Total Precipitation ......        10.887        23.836
  Evaporation Loss .........         0.000         0.000
  Infiltration Loss ........         1.411         3.089
  Surface Runoff ...........         8.292        18.155
  Final Storage ............         1.186         2.596
  Continuity Error (%) .....        -0.016
  
  
  **************************           COD            SS            TN            TP         NH4-N
  Runoff Quality Continuity             kg            kg            kg            kg            kg
  **************************    ----------    ----------    ----------    ----------    ----------
  Initial Buildup ..........     41378.656     70582.865      1804.177       168.684      1032.807
  Surface Buildup ..........        41.425        91.431         2.568         0.227         1.442
  Wet Deposition ...........         0.000         0.000         0.000         0.000         0.000
  Sweeping Removal .........         0.000         0.000         0.000         0.000         0.000
  Infiltration Loss ........       164.554       320.127         3.263         0.236         1.574
  BMP Removal ..............         0.000         0.000         0.000         0.000         0.000
  Surface Runoff ...........      9366.500     18283.806       183.722        12.955        88.133
  Remaining Buildup ........     31885.964     52064.522      1619.692       155.715       944.511
  Continuity Error (%) .....         0.007         0.008         0.004         0.003         0.003
  
  
  **************************        Volume        Volume
  Flow Routing Continuity        hectare-m      10^6 ltr
  **************************     ---------     ---------
  Dry Weather Inflow .......         0.616         6.165
  Wet Weather Inflow .......         8.290        82.900
  Groundwater Inflow .......         0.000         0.000
  RDII Inflow ..............         0.000         0.000
  External Inflow ..........         0.102         1.024
  External Outflow .........         2.398        23.982
  Flooding Loss ............         6.133        61.335
  Evaporation Loss .........         0.000         0.000
  Exfiltration Loss ........         0.000         0.000
  Initial Stored Volume ....         0.076         0.761
  Final Stored Volume ......         0.671         6.707
  Continuity Error (%) .....        -1.295
  
  
  **************************           COD            SS            TN            TP         NH4-N
  Quality Routing Continuity            kg            kg            kg            kg            kg
  **************************    ----------    ----------    ----------    ----------    ----------
  Dry Weather Inflow .......      1541.201      2465.922       147.955        18.494        92.472
  Wet Weather Inflow .......      9365.068     18281.250       183.691        12.953        88.117
  Groundwater Inflow .......         0.000         0.000         0.000         0.000         0.000
  RDII Inflow ..............         0.000         0.000         0.000         0.000         0.000
  External Inflow ..........       183.418       293.469        17.608         2.201        11.005
  External Outflow .........      2950.040      5426.820       136.494        14.954        79.573
  Flooding Loss ............      7445.157     14405.049       184.957        15.867        96.258
  Exfiltration Loss ........         0.000         0.000         0.000         0.000         0.000
  Mass Reacted .............         0.000         0.000         0.000         0.000         0.000
  Initial Stored Mass ......         0.000         0.000         0.000         0.000         0.000
  Final Stored Mass ........       571.974      1006.140        23.993         2.493        13.729
  Continuity Error (%) .....         1.105         0.963         1.091         0.993         1.062
  
  
  *************************
  Highest Continuity Errors
  *************************
  Node YS02001884 (9.33%)
  Node JK-storage (-8.04%)
  Node HS02004842 (7.73%)
  Node HS02004817 (1.58%)
  Node YSB1171 (1.38%)
  
  
  ***************************
  Time-Step Critical Elements
  ***************************
  Link WS02006252WS02006251 (54.49%)
  Link WS02006280WS02006229 (13.04%)
  Link YS02001793JiankangQianchi (9.89%)
  Link YS02001745YS02001748 (6.43%)
  Link WS02006238WS02006235 (5.25%)
  
  
  ********************************
  Highest Flow Instability Indexes
  ********************************
  Link WS02006113WS02006111 (37)
  Link YS02163601YS02164001 (30)
  Link YS02163301YS02001633 (29)
  Link YS02001629YS02163301 (29)
  Link YS02164001YS02001641 (28)
  
  
  *************************
  Routing Time Step Summary
  *************************
  Minimum Time Step           :     0.06 sec
  Average Time Step           :     1.21 sec
  Maximum Time Step           :     5.00 sec
  Percent in Steady State     :    -0.00
  Average Iterations per Step :     3.65
  Percent Not Converging      :    13.11
  
  
  ***************************
  Subcatchment Runoff Summary
  ***************************
  
  ------------------------------------------------------------------------------------------------------------------------------
                            Total      Total      Total      Total     Imperv       Perv      Total       Total     Peak  Runoff
                           Precip      Runon       Evap      Infil     Runoff     Runoff     Runoff      Runoff   Runoff   Coeff
  Subcatchment                 mm         mm         mm         mm         mm         mm         mm    10^6 ltr      LPS
  ------------------------------------------------------------------------------------------------------------------------------
  sub0                      23.84       0.00       0.00       0.77      22.12       0.90      23.02        0.02     5.06   0.966
  sub1                      23.84       0.00       0.00       1.33      21.12       1.29      22.41        0.15    33.98   0.940
  sub2                      23.84       0.00       0.00       5.60      14.93       3.22      18.15        0.17    32.49   0.761
  sub3                      23.84       0.00       0.00       5.94      14.89       2.88      17.77        0.40    70.76   0.745
  sub4                      23.84       0.00       0.00       1.46      20.95       1.16      22.11        0.46    81.55   0.928
  sub5                      23.84       0.00       0.00       0.82      22.07       0.85      22.92        0.26    59.56   0.962
  sub7                      23.84       0.00       0.00       1.03      21.63       1.11      22.74        0.08    19.22   0.954
  sub8                      23.84       0.00       0.00       1.05      21.62       1.10      22.72        0.15    35.26   0.953
  sub9                      23.84       0.00       0.00       1.05      21.62       1.10      22.71        0.11    26.33   0.953
  sub10                     23.84       0.00       0.00       0.94      21.84       0.97      22.81        0.25    58.74   0.957
  sub11                     23.84       0.00       0.00       0.92      21.86       0.99      22.85        0.27    65.28   0.959
  sub12                     23.84       0.00       0.00       1.50      20.69       1.60      22.29        0.19    51.10   0.935
  sub14                     23.84       0.00       0.00       1.05      21.61       1.09      22.71        0.22    51.81   0.953
  sub15                     23.84       0.00       0.00       4.05      16.62       3.10      19.72        0.34    74.01   0.827
  sub16                     23.84       0.00       0.00       4.23      15.93       3.63      19.56        0.20    48.29   0.821
  sub17                     23.84       0.00       0.00       4.13      16.17       3.50      19.67        0.17    39.49   0.825
  sub22                     23.84       0.00       0.00       6.08      13.55       4.17      17.72        1.12   235.47   0.743
  sub23                     23.84       0.00       0.00       5.01      14.97       3.81      18.78        0.90   197.86   0.788
  sub60                     23.84       0.00       0.00       2.13      18.82       0.73      19.55        5.93   667.30   0.820
  sub61                     23.84       0.00       0.00       3.01      18.52       1.04      19.56        6.03   717.95   0.821
  sub62                     23.84       0.00       0.00       1.25      20.31       0.65      20.96        6.44   751.14   0.880
  sub63                     23.84       0.00       0.00       5.57      16.04       1.34      17.38        5.26   638.31   0.729
  sub64                     23.84       0.00       0.00       2.78      18.11       0.79      18.90        5.75   644.78   0.793
  sub65                     23.84       0.00       0.00       2.36      18.46       0.74      19.20        5.90   658.64   0.806
  sub66                     23.84       0.00       0.00       5.92      15.37       0.99      16.36        5.02   574.80   0.686
  sub67                     23.84       0.00       0.00       1.18      20.92       0.73      21.65        6.68   814.16   0.908
  sub68                     23.84       0.00       0.00       2.35      19.35       0.99      20.34        6.25   750.28   0.853
  sub69                     23.84       0.00       0.00       2.36      19.61       1.21      20.83        4.87   655.18   0.874
  sub70                     23.84      21.26       0.00       9.95      28.09       5.22      33.30        7.62   861.91   0.738
  sub71                     23.84       0.00       0.00       1.29      20.01       0.62      20.63        4.87   557.88   0.866
  sub72                     23.84       0.00       0.00       1.26      17.48       0.41      17.89        3.64   352.81   0.750
  1                         23.84      32.43       0.00       1.37      34.56      12.51      47.07       11.06  1042.57   0.837
  2                         23.84       0.00       0.00       3.02       5.81       5.77      11.58        4.63   438.27   0.486
  
  
  ****************************
  Subcatchment Washoff Summary
  ****************************
  
  ------------------------------------------------------------------------------------------
                                 COD            SS            TN            TP         NH4-N
  Subcatchment                    kg            kg            kg            kg            kg
  ------------------------------------------------------------------------------------------
  sub0                         5.447        10.648         0.101         0.009         0.050
  sub1                        23.688        48.042         0.463         0.033         0.225
  sub2                        16.966        34.031         0.358         0.025         0.167
  sub3                        41.902        83.507         0.867         0.061         0.406
  sub4                        55.504       114.752         1.120         0.071         0.542
  sub5                        53.600       106.723         1.016         0.079         0.498
  sub7                        11.854        24.343         0.233         0.016         0.114
  sub8                        17.650        37.231         0.360         0.022         0.174
  sub9                        15.191        31.538         0.304         0.020         0.147
  sub10                       44.044        88.979         0.851         0.062         0.416
  sub11                       42.563        86.978         0.834         0.059         0.406
  sub12                       37.050        74.157         0.712         0.055         0.347
  sub14                       32.601        66.963         0.643         0.044         0.313
  sub15                       47.434        94.407         0.941         0.071         0.448
  sub16                       30.857        61.246         0.608         0.047         0.290
  sub17                       28.315        55.641         0.547         0.044         0.262
  sub22                      161.087       316.749         3.138         0.242         1.488
  sub23                       88.506       179.789         1.886         0.128         0.879
  sub60                      597.605      1177.766        11.858         0.760         5.721
  sub61                      735.660      1436.196        13.939         0.989         6.759
  sub62                      737.985      1463.009        14.530         0.959         7.028
  sub63                      558.710      1076.727        11.142         0.807         5.242
  sub64                      776.597      1477.973        14.527         1.087         6.999
  sub65                      790.465      1509.997        14.865         1.095         7.170
  sub66                      450.962       868.123         9.087         0.615         4.293
  sub67                     1073.899      2091.719        20.029         1.513         9.761
  sub68                      789.681      1552.112        15.327         1.072         7.390
  sub69                      691.072      1362.692        13.304         0.964         6.425
  sub70                     1288.654      2534.730        26.762         1.929        12.763
  sub71                      488.493       980.368         9.974         0.604         4.804
  sub72                      441.504       833.180         8.283         0.587         4.008
  1                         1052.298      2081.048        22.042         1.588        10.427
  2                          118.381       219.864         3.138         0.193         1.360
  ------------------------------------------------------------------------------------------
  System                   11346.226     22181.229       223.788        15.848       107.320
  
  
  ******************
  Node Depth Summary
  ******************
  
  ---------------------------------------------------------------------------------
                                 Average  Maximum  Maximum  Time of Max    Reported
                                   Depth    Depth      HGL   Occurrence   Max Depth
  Node                 Type       Meters   Meters   Meters  days hr:min      Meters
  ---------------------------------------------------------------------------------
  WS02001211           JUNCTION     0.79     0.86     5.69     0  01:43        0.86
  WS02001212           JUNCTION     0.50     0.59     5.65     0  01:42        0.59
  WS02001213           JUNCTION     0.74     0.87     5.63     0  01:41        0.87
  WS02003069           JUNCTION     0.56     0.74     5.32     0  01:43        0.74
  WS02003072           JUNCTION     0.62     0.78     5.15     0  01:41        0.78
  WS02003073           JUNCTION     0.38     0.49     4.55     0  01:42        0.49
  WS02003060           JUNCTION     0.49     0.65     5.58     0  01:42        0.65
  WS02003066           JUNCTION     0.28     0.40     5.95     0  01:35        0.40
  WS02003059           JUNCTION     0.80     0.92     5.61     0  01:43        0.92
  WS02003067           JUNCTION     0.66     0.84     6.16     0  01:35        0.84
  WS02004401           JUNCTION     0.82     1.46     7.46     0  01:32        1.29
  WS02004402           JUNCTION     0.84     1.41     7.37     0  01:32        1.27
  WS02004403           JUNCTION     0.85     1.37     7.30     0  01:32        1.24
  WS02004404           JUNCTION     0.92     1.39     7.24     0  01:32        1.28
  WS02004406           JUNCTION     0.91     1.25     7.08     0  01:32        1.18
  WS02004409           JUNCTION     0.62     1.04     6.81     0  01:35        1.02
  WS02004410           JUNCTION     0.64     1.01     6.73     0  01:35        1.00
  WS02004411           JUNCTION     0.64     0.97     6.65     0  01:35        0.97
  WS02004412           JUNCTION     0.65     0.94     6.58     0  01:35        0.93
  WS02004413           JUNCTION     0.80     1.05     6.52     0  01:35        1.04
  WS02004405           JUNCTION     0.91     1.36     7.21     0  01:32        1.24
  WS02006109           JUNCTION     0.94     1.91     8.53     0  01:33        1.86
  WS02006110           JUNCTION     0.89     1.79     8.37     0  01:32        1.63
  WS02006111           JUNCTION     0.34     1.28     7.98     0  01:32        1.00
  WS02006112           JUNCTION     1.02     1.90     7.78     0  01:32        1.65
  WS02006113           JUNCTION     0.45     1.43     8.32     0  01:32        1.07
  WS02006115           JUNCTION     0.73     1.53     7.67     0  01:32        1.29
  WS02006116           JUNCTION     0.80     1.53     7.57     0  01:32        1.32
  WS02006230           JUNCTION     1.00     2.14     8.88     0  01:33        2.11
  WS02006231           JUNCTION     0.73     1.74     8.87     0  01:33        1.72
  WS02006232           JUNCTION     0.88     1.81     8.85     0  01:34        1.80
  WS02006234           JUNCTION     0.82     1.68     8.84     0  01:34        1.66
  WS02006235           JUNCTION     0.87     1.67     8.84     0  01:33        1.64
  WS02006238           JUNCTION     0.89     1.69     8.83     0  01:34        1.67
  WS02006240           JUNCTION     0.80     1.50     8.80     0  01:34        1.47
  WS02006242           JUNCTION     0.86     1.51     8.77     0  01:34        1.49
  WS02006243           JUNCTION     0.74     1.33     8.75     0  01:33        1.31
  WS02006245           JUNCTION     0.72     1.24     8.73     0  01:34        1.23
  WS02006247           JUNCTION     0.72     1.21     8.71     0  01:34        1.20
  WS02006248           JUNCTION     0.66     1.10     8.69     0  01:32        1.10
  WS02006249           JUNCTION     0.68     1.09     8.69     0  01:32        1.09
  WS02006239           JUNCTION     0.86     1.61     8.82     0  01:34        1.59
  WS02006251           JUNCTION     0.66     1.96     9.63     0  01:32        1.21
  WS02006252           JUNCTION     0.42     1.50     9.74     0  01:32        0.74
  WS02006253           JUNCTION     0.69     1.94     9.58     0  01:32        1.27
  WS02006256           JUNCTION     1.78     2.35     9.28     0  00:00        2.35
  WS02004138           JUNCTION     0.19     0.20     7.45     0  00:00        0.19
  WS02004139           JUNCTION     0.73     0.80     5.71     0  01:42        0.80
  WS02004407           JUNCTION     0.27     0.42     6.74     0  01:35        0.42
  WS02006228           JUNCTION     0.98     2.11     8.76     0  01:33        2.08
  WS02006229           JUNCTION     0.98     2.21     8.90     0  01:33        2.17
  WS02006280           JUNCTION     0.09     0.51     8.78     0  01:33        0.50
  WS02006284           JUNCTION     0.39     0.72     9.12     0  01:34        0.72
  WS02006287           JUNCTION     0.13     0.46     9.42     0  01:34        0.46
  WSF200               JUNCTION     0.28     0.45     5.69     0  01:36        0.45
  HS02004901           JUNCTION     0.15     0.43    10.25     0  01:33        0.43
  HS02004881           JUNCTION     0.01     0.09     9.12     0  01:32        0.06
  HS02004876           JUNCTION     0.05     0.19     9.22     0  01:32        0.19
  HS02004870           JUNCTION     0.02     0.11     9.40     0  01:35        0.11
  HS02004862           JUNCTION     0.03     0.13     9.51     0  01:35        0.13
  HS02004856           JUNCTION     0.09     0.17     9.59     0  01:35        0.17
  HS02004852           JUNCTION     0.02     0.10     9.61     0  01:35        0.10
  HS02004848           JUNCTION     0.02     0.08     9.68     0  01:36        0.08
  HS02004842           JUNCTION     0.34     0.41     9.68     0  01:35        0.41
  HS02004837           JUNCTION     0.04     0.10     9.68     0  01:35        0.10
  HS02004830           JUNCTION     0.05     0.15     9.62     0  01:35        0.15
  HS02004824           JUNCTION     0.03     0.20     9.61     0  01:35        0.20
  HS02004817           JUNCTION     0.47     0.77     9.61     0  01:34        0.77
  HS02004807           JUNCTION     0.15     0.44     9.61     0  01:35        0.44
  HS02004802           JUNCTION     0.19     0.47     9.60     0  01:34        0.47
  HS02004799           JUNCTION     0.15     0.55     9.76     0  01:33        0.55
  HS02004792           JUNCTION     0.05     0.27     9.79     0  01:33        0.27
  HS02004788           JUNCTION     0.04     0.19    10.09     0  01:34        0.19
  HS02004785           JUNCTION     0.06     0.29    10.19     0  01:33        0.29
  HS02004777           JUNCTION     0.17     0.44    10.24     0  01:33        0.44
  HS02004770           JUNCTION     0.14     0.42    10.25     0  01:33        0.42
  HS02004480           JUNCTION     0.11     0.46     9.70     0  01:33        0.46
  HS02004479           JUNCTION     0.15     0.49     9.70     0  01:34        0.49
  HS02004478           JUNCTION     0.08     0.35     9.58     0  01:34        0.35
  YS02001745           JUNCTION     0.82     1.29     8.81     0  01:29        1.05
  YS02001748           JUNCTION     1.23     1.86     8.94     0  01:28        1.47
  YS02001751           JUNCTION     1.41     1.77     8.65     0  01:29        1.64
  YS02001754           JUNCTION     1.67     1.94     8.54     0  01:29        1.89
  YS02001762           JUNCTION     1.86     2.07     8.47     0  03:00        2.07
  YS02001765           JUNCTION     1.81     2.02     8.47     0  03:00        2.02
  YS02001767           JUNCTION     1.78     1.97     8.46     0  02:06        1.97
  YS02001770           JUNCTION     1.77     1.95     8.44     0  02:04        1.95
  YS02001774           JUNCTION     1.83     2.05     8.47     0  01:26        2.00
  YS02001779           JUNCTION     1.57     1.68     8.37     0  01:26        1.68
  YS02001882           JUNCTION     0.79     1.70     8.41     0  01:32        1.64
  YS02001884           JUNCTION     0.88     1.78     8.40     0  01:32        1.74
  YS02001759           JUNCTION     1.90     2.11     8.48     0  03:01        2.11
  YS02001887           JUNCTION     0.96     1.84     8.38     0  01:32        1.82
  YS02001890           JUNCTION     0.98     1.81     8.32     0  01:32        1.81
  YS02001898           JUNCTION     0.75     1.70     8.44     0  01:32        1.56
  YS02001901           JUNCTION     0.87     1.81     8.42     0  01:32        1.67
  YS02001904           JUNCTION     0.84     1.73     8.36     0  01:32        1.63
  YS02001907           JUNCTION     1.17     1.96     8.25     0  01:32        1.96
  YS02001910           JUNCTION     0.97     1.99     8.50     0  01:33        1.88
  YS02001915           JUNCTION     0.77     1.93     8.64     0  01:33        1.77
  YS02001918           JUNCTION     0.51     1.81     8.88     0  01:33        1.59
  YS02001619           JUNCTION     1.36     1.61     8.54     0  01:27        1.53
  YS02001629           JUNCTION     1.71     1.85     8.40     0  01:27        1.85
  YS02001641           JUNCTION     1.81     1.96     8.39     0  01:29        1.93
  YS02001644           JUNCTION     1.81     1.92     8.35     0  01:29        1.92
  YS02001652           JUNCTION     1.67     2.09     8.69     0  04:26        1.89
  YS02001655           JUNCTION     1.44     2.07     8.92     0  04:26        1.69
  YS02001920           JUNCTION     0.61     2.10     9.11     0  01:33        1.67
  YS02001923           JUNCTION     0.42     2.01     9.27     0  01:33        1.44
  YS02001926           JUNCTION     0.43     1.90     9.35     0  01:33        1.27
  YS02001929           JUNCTION     0.28     1.78     9.47     0  01:33        1.05
  YS02001658           JUNCTION     1.16     2.04     9.19     0  04:26        1.42
  YS02001661           JUNCTION     0.92     1.95     9.36     0  04:26        1.27
  YS02001664           JUNCTION     0.43     0.68     8.61     0  01:30        0.68
  YS02001622           JUNCTION     1.38     1.62     8.52     0  01:27        1.54
  YS02001633           JUNCTION     1.80     1.98     8.43     0  01:29        1.94
  YS02001649           JUNCTION     1.87     2.05     8.44     0  01:29        2.05
  YS02001757           JUNCTION     1.99     2.21     8.47     0  03:01        2.21
  YS02001895           JUNCTION     0.74     1.66     8.41     0  01:32        1.56
  YS02001625           JUNCTION     1.66     1.78     8.38     0  01:27        1.78
  YS02163301           JUNCTION     1.74     1.90     8.42     0  01:29        1.89
  YS02163601           JUNCTION     1.85     2.03     8.43     0  01:29        1.98
  YS02164001           JUNCTION     1.79     1.96     8.42     0  01:29        1.91
  YS02001647           JUNCTION     1.65     1.80     8.41     0  04:19        1.79
  YSB1154              JUNCTION     0.29     0.65     9.70     0  01:34        0.65
  YSB6556              JUNCTION     0.18     0.53     9.70     0  01:33        0.53
  YSB1174              JUNCTION     0.24     0.59     9.70     0  01:33        0.59
  YSB1171              JUNCTION     0.44     0.80     9.70     0  01:34        0.80
  YS02006553           JUNCTION     1.17     1.98     8.27     0  01:32        1.97
  YS02006561           JUNCTION     0.47     1.57     8.23     0  01:32        1.09
  YS02006556           JUNCTION     1.14     1.97     8.28     0  01:32        1.94
  YS02006558           JUNCTION     1.18     2.03     8.30     0  01:32        1.98
  YS02001783           JUNCTION     0.74     1.78     7.92     0  01:32        1.48
  YS02001784           JUNCTION     0.74     1.73     7.80     0  01:32        1.42
  YS02001786           JUNCTION     0.66     1.63     7.66     0  01:32        1.26
  YS02001788           JUNCTION     0.58     1.72     7.70     0  01:32        1.13
  YS02001790           JUNCTION     0.72     1.96     7.60     0  05:12        1.29
  YS02001791           JUNCTION     0.69     2.72     8.19     0  05:11        1.28
  YS02001793           JUNCTION     1.01     2.65     7.48     0  05:09        1.80
  WSC                  OUTFALL      0.38     0.49     1.16     0  01:43        0.49
  JK-storage           STORAGE      4.00     5.80     6.60     0  01:32        5.80
  CC-storage           STORAGE      1.24     1.46     8.46     0  03:01        1.46
  XR-storage           STORAGE      7.25     7.72     5.72     0  01:47        7.72
  
  
  *******************
  Node Inflow Summary
  *******************
  
  -------------------------------------------------------------------------------------------------
                                  Maximum  Maximum                  Lateral       Total        Flow
                                  Lateral    Total  Time of Max      Inflow      Inflow     Balance
                                   Inflow   Inflow   Occurrence      Volume      Volume       Error
  Node                 Type           LPS      LPS  days hr:min    10^6 ltr    10^6 ltr     Percent
  -------------------------------------------------------------------------------------------------
  WS02001211           JUNCTION      7.35   390.11     0  03:15       0.207        10.4       0.391
  WS02001212           JUNCTION      0.00   392.86     0  03:15           0        10.4       0.234
  WS02001213           JUNCTION      0.00   395.24     0  03:15           0        10.4       0.284
  WS02003069           JUNCTION      0.32  1378.89     0  01:42     0.00902        24.1       0.155
  WS02003072           JUNCTION      0.00  1379.03     0  01:43           0          24       0.183
  WS02003073           JUNCTION      1.82  1380.68     0  01:44      0.0514          24       0.213
  WS02003060           JUNCTION     16.53  1379.17     0  01:42       0.466        24.1       0.144
  WS02003066           JUNCTION      0.00  1000.27     0  01:35           0        13.3       0.037
  WS02003059           JUNCTION      0.00   398.05     0  03:14           0        10.3       0.396
  WS02003067           JUNCTION      0.00   996.36     0  01:35           0        13.4       0.075
  WS02004401           JUNCTION      0.00  1015.93     0  01:34           0        13.6       0.161
  WS02004402           JUNCTION      0.00  1016.33     0  01:34           0        13.6       0.151
  WS02004403           JUNCTION      0.00  1017.24     0  01:34           0        13.6       0.137
  WS02004404           JUNCTION      0.16  1017.66     0  01:34     0.00457        13.5       0.103
  WS02004406           JUNCTION      0.00  1018.65     0  01:34           0        13.5       0.251
  WS02004409           JUNCTION      0.00  1016.30     0  01:34           0        13.5       0.134
  WS02004410           JUNCTION      0.00  1008.67     0  01:34           0        13.4       0.150
  WS02004411           JUNCTION      0.00   993.54     0  01:36           0        13.4       0.154
  WS02004412           JUNCTION      0.00   993.92     0  01:36           0        13.4       0.164
  WS02004413           JUNCTION      0.00   994.80     0  01:35           0        13.4       0.240
  WS02004405           JUNCTION      0.04  1018.70     0  01:34     0.00107        13.5       0.154
  WS02006109           JUNCTION      1.23   978.10     0  01:34      0.0347        13.5       0.135
  WS02006110           JUNCTION      0.00   978.00     0  01:34           0        13.5       0.139
  WS02006111           JUNCTION      0.00   977.70     0  01:34           0        13.5       0.032
  WS02006112           JUNCTION     39.49  1016.50     0  01:34       0.169        13.7       0.226
  WS02006113           JUNCTION      0.00   977.90     0  01:34           0        13.5       0.073
  WS02006115           JUNCTION      0.00  1016.07     0  01:34           0        13.6       0.153
  WS02006116           JUNCTION      0.00  1016.08     0  01:34           0        13.6       0.133
  WS02006230           JUNCTION     10.28   532.65     0  05:34        0.29        9.13       0.153
  WS02006231           JUNCTION      0.00   523.19     0  05:34           0        8.83       0.102
  WS02006232           JUNCTION      0.00   522.99     0  05:34           0        8.82       0.186
  WS02006234           JUNCTION      0.00   522.74     0  05:34           0         8.8       0.093
  WS02006235           JUNCTION      0.00   523.48     0  05:37           0        8.94       0.100
  WS02006238           JUNCTION      0.00   419.15     0  06:30           0        5.42       0.132
  WS02006240           JUNCTION      0.00   417.27     0  06:30           0        5.39       0.178
  WS02006242           JUNCTION      0.00   416.97     0  06:30           0        5.38       0.215
  WS02006243           JUNCTION      0.00   416.56     0  06:30           0        5.37       0.059
  WS02006245           JUNCTION      0.00   416.29     0  06:30           0        5.36       0.103
  WS02006247           JUNCTION      0.00   416.49     0  06:30           0        5.35       0.046
  WS02006248           JUNCTION      0.00   416.87     0  05:00           0        5.39      -0.005
  WS02006249           JUNCTION      0.00   485.79     0  02:20           0        6.58       0.031
  WS02006239           JUNCTION      0.00   418.61     0  06:30           0         5.4       0.151
  WS02006251           JUNCTION      0.08   484.76     0  02:20     0.00217        6.59      -0.009
  WS02006252           JUNCTION      0.00   400.00     0  04:30           0        5.64       0.002
  WS02006253           JUNCTION      5.06   289.19     0  01:32      0.0186       0.943      -0.129
  WS02006256           JUNCTION      0.00   983.00     0  01:40           0        14.5      -0.001
  WS02004138           JUNCTION      0.00   380.00     0  00:00           0        10.3       0.063
  WS02004139           JUNCTION      0.32   395.85     0  00:00     0.00905        10.3       0.447
  WS02004407           JUNCTION      0.00  1019.45     0  01:34           0        13.5       0.059
  WS02006228           JUNCTION      0.00   976.73     0  01:34           0        13.5       0.115
  WS02006229           JUNCTION      0.00  1057.17     0  01:32           0        13.6       0.102
  WS02006280           JUNCTION      0.00   937.79     0  01:34           0        4.56       0.014
  WS02006284           JUNCTION      0.10   934.65     0  01:35      0.0027        4.56       0.017
  WS02006287           JUNCTION      0.00   934.66     0  01:35           0        4.56       0.019
  WSF200               JUNCTION      0.00  1000.99     0  01:36           0        13.3       0.035
  HS02004901           JUNCTION     48.29    48.29     0  01:31       0.205       0.205       0.867
  HS02004881           JUNCTION     19.22   196.54     0  01:33      0.0766       0.897       0.076
  HS02004876           JUNCTION     33.98   176.89     0  01:34       0.149       0.821       0.068
  HS02004870           JUNCTION     35.26   143.34     0  01:34       0.145       0.672       0.017
  HS02004862           JUNCTION     32.69   109.55     0  01:35       0.175       0.527       0.033
  HS02004856           JUNCTION     26.33    76.92     0  01:35       0.109       0.354       0.408
  HS02004852           JUNCTION      0.00    51.63     0  01:36           0       0.245       0.025
  HS02004848           JUNCTION     70.76    70.76     0  01:38         0.4         0.4       0.012
  HS02004842           JUNCTION      0.00    21.86     0  01:49           0       0.168       8.372
  HS02004837           JUNCTION     65.09    82.02     0  01:35       0.431       0.586       0.138
  HS02004830           JUNCTION      0.15    82.12     0  01:35     0.00423       0.576       0.215
  HS02004824           JUNCTION     81.60   164.05     0  01:38       0.463        1.04       0.052
  HS02004817           JUNCTION      0.60   166.61     0  01:39      0.0169        1.05       1.605
  HS02004807           JUNCTION     65.28   225.46     0  01:36       0.265         1.3       0.342
  HS02004802           JUNCTION      0.00   226.44     0  01:37           0         1.3       0.298
  HS02004799           JUNCTION     51.81   605.47     0  01:33       0.216        2.82       0.117
  HS02004792           JUNCTION    235.75   554.35     0  01:33        1.13        2.61       0.015
  HS02004788           JUNCTION     75.68   319.93     0  01:33       0.386        1.48       0.026
  HS02004785           JUNCTION      0.15   244.47     0  01:33     0.00423         1.1       0.047
  HS02004777           JUNCTION      0.03   244.67     0  01:32    0.000846         1.1       0.479
  HS02004770           JUNCTION    197.86   245.55     0  01:32       0.896         1.1       0.279
  HS02004480           JUNCTION      0.00   713.03     0  01:33           0        3.27       0.024
  HS02004479           JUNCTION      0.00   107.71     0  01:33           0       0.464       0.161
  HS02004478           JUNCTION      0.00   934.58     0  01:35           0        4.56       0.007
  YS02001745           JUNCTION    667.30   667.30     0  03:01        5.93        5.93       0.197
  YS02001748           JUNCTION      0.04   667.54     0  03:01     0.00127        5.92       0.384
  YS02001751           JUNCTION      0.01   667.83     0  03:01     0.00031         5.9       0.408
  YS02001754           JUNCTION      0.26   668.71     0  03:01     0.00733        5.88       0.416
  YS02001762           JUNCTION      0.00   368.48     0  01:32           0        3.22       0.658
  YS02001765           JUNCTION      0.00   368.54     0  01:35           0        3.21       0.762
  YS02001767           JUNCTION      0.54   372.15     0  01:26      0.0151        3.24       1.113
  YS02001770           JUNCTION    751.30  1107.58     0  03:01        6.45        8.28       0.374
  YS02001774           JUNCTION      0.00   851.17     0  02:33           0        6.49       0.384
  YS02001779           JUNCTION      0.01   851.17     0  02:45    0.000141        6.46       0.238
  YS02001882           JUNCTION      0.00    36.84     0  01:29           0      0.0317       7.886
  YS02001884           JUNCTION      0.00    64.45     0  01:29           0      0.0701      10.289
  YS02001759           JUNCTION    717.99   899.35     0  01:41        6.03        7.39       0.306
  YS02001887           JUNCTION    814.61   815.92     0  01:57        6.69        6.72       0.131
  YS02001890           JUNCTION      0.00   815.79     0  01:57           0        6.67       0.145
  YS02001898           JUNCTION      0.00   597.23     0  01:32           0        5.39       0.050
  YS02001901           JUNCTION      0.00   602.11     0  01:32           0        5.38       0.138
  YS02001904           JUNCTION      0.00   604.18     0  01:32           0        5.38       0.118
  YS02001907           JUNCTION      0.00  1427.97     0  03:01           0          14       0.180
  YS02001910           JUNCTION      0.00   911.29     0  03:01           0         8.6       0.148
  YS02001915           JUNCTION    557.90   911.10     0  03:01        4.87        8.65       0.074
  YS02001918           JUNCTION      0.00   436.71     0  01:32           0        3.81       0.055
  YS02001619           JUNCTION    574.80   574.80     0  03:01        5.02        5.02       0.239
  YS02001629           JUNCTION      0.00   283.09     0  01:26           0        2.09       1.372
  YS02001641           JUNCTION      0.00   456.53     0  01:28           0        6.14       0.344
  YS02001644           JUNCTION    644.82  1924.41     0  03:01        5.75        18.8       0.140
  YS02001652           JUNCTION      0.00   639.59     0  03:01           0        5.22       0.439
  YS02001655           JUNCTION      0.15   639.39     0  03:01     0.00434        5.24       0.488
  YS02001920           JUNCTION      2.87   404.30     0  01:33      0.0809        3.79       0.092
  YS02001923           JUNCTION      0.04   403.12     0  01:33     0.00106        3.69       0.049
  YS02001926           JUNCTION      0.05   463.64     0  01:33     0.00147        3.66       0.077
  YS02001929           JUNCTION    352.81   352.81     0  03:01        3.64        3.65       0.005
  YS02001658           JUNCTION      0.00   638.98     0  03:01           0        5.26       0.470
  YS02001661           JUNCTION      0.00   801.19     0  01:41           0        5.54      -0.035
  YS02001664           JUNCTION    638.31   638.31     0  03:01        5.26        5.54       0.114
  YS02001622           JUNCTION      0.00   574.86     0  03:01           0        5.01       0.635
  YS02001633           JUNCTION    658.84   658.84     0  03:01        5.91        7.08       0.451
  YS02001649           JUNCTION      0.00  1437.17     0  03:01           0        10.8       0.342
  YS02001757           JUNCTION      0.00  2182.79     0  01:41           0        13.9       0.663
  YS02001895           JUNCTION      0.00   593.47     0  01:32           0        5.39       0.115
  YS02001625           JUNCTION      0.00   801.47     0  03:01           0        5.86       0.686
  YS02163301           JUNCTION      0.00   277.02     0  01:26           0        2.09       1.158
  YS02163601           JUNCTION      0.11   459.89     0  01:28      0.0031        6.14       0.490
  YS02164001           JUNCTION      0.00   458.40     0  01:28           0        6.13       0.328
  YS02001647           JUNCTION      0.00   846.70     0  02:29           0        8.39       0.338
  YSB1154              JUNCTION     59.56    59.56     0  01:33        0.26        0.26       0.556
  YSB6556              JUNCTION      0.00    59.44     0  01:33           0       0.261       0.488
  YSB1174              JUNCTION     51.10    51.10     0  01:30       0.195       0.195       0.658
  YSB1171              JUNCTION      0.00   108.25     0  01:32           0       0.462       1.395
  YS02006553           JUNCTION      0.00   731.38     0  04:02           0        7.58       0.209
  YS02006561           JUNCTION      0.00  1062.77     0  01:32           0        13.8       0.008
  YS02006556           JUNCTION      0.00   731.46     0  04:02           0        7.59       0.153
  YS02006558           JUNCTION    751.16  1062.25     0  01:32        6.28        13.8       0.036
  YS02001783           JUNCTION      0.00  1024.12     0  01:31           0        13.8       0.020
  YS02001784           JUNCTION      1.06  1025.26     0  01:31      0.0299        13.8       0.030
  YS02001786           JUNCTION      0.06  1025.23     0  01:31     0.00159        13.8       0.027
  YS02001788           JUNCTION      0.07  1004.80     0  01:31       0.002        13.8       0.019
  YS02001790           JUNCTION      0.15   984.10     0  02:00     0.00437        13.8       0.016
  YS02001791           JUNCTION      0.00   984.22     0  01:51           0        13.8       0.006
  YS02001793           JUNCTION      0.00   984.36     0  01:51           0        13.8      -0.001
  WSC                  OUTFALL       0.00  1381.57     0  01:43           0          24       0.000
  JK-storage           STORAGE       0.00  1024.24     0  01:30           0          14      -7.445
  CC-storage           STORAGE       0.00  2182.40     0  01:41           0        9.55       0.686
  XR-storage           STORAGE    1680.85  1680.85     0  03:01        21.3        21.9       0.002
  
  
  **********************
  Node Surcharge Summary
  **********************
  
  Surcharging occurs when water rises above the top of the highest conduit.
  ---------------------------------------------------------------------
                                               Max. Height   Min. Depth
                                   Hours       Above Crown    Below Rim
  Node                 Type      Surcharged         Meters       Meters
  ---------------------------------------------------------------------
  WS02004401           JUNCTION        1.83          0.463        1.197
  WS02004402           JUNCTION        1.86          0.414        1.326
  WS02004403           JUNCTION        1.86          0.367        1.663
  WS02004404           JUNCTION        1.95          0.391        2.389
  WS02004406           JUNCTION        1.92          0.249        2.201
  WS02004409           JUNCTION        0.13          0.042        2.318
  WS02004410           JUNCTION        0.01          0.008        2.532
  WS02004413           JUNCTION        0.89          0.050        2.150
  WS02004405           JUNCTION        1.93          0.360        2.440
  WS02006109           JUNCTION        5.10          1.092        0.728
  WS02006110           JUNCTION        3.72          0.876        0.974
  WS02006111           JUNCTION        0.64          0.467        1.403
  WS02006112           JUNCTION        3.96          0.899        0.781
  WS02006113           JUNCTION        0.72          0.626        1.304
  WS02006115           JUNCTION        1.72          0.520        1.730
  WS02006116           JUNCTION        1.74          0.471        1.819
  WS02006230           JUNCTION        3.55          1.057        0.513
  WS02006231           JUNCTION        3.79          1.032        0.498
  WS02006232           JUNCTION        5.14          1.112        0.368
  WS02006234           JUNCTION        4.58          0.963        0.277
  WS02006235           JUNCTION        4.86          0.963        0.327
  WS02006238           JUNCTION        5.00          0.970        0.460
  WS02006240           JUNCTION        4.39          0.794        0.596
  WS02006242           JUNCTION        4.58          0.775        0.045
  WS02006243           JUNCTION        4.06          0.615        0.155
  WS02006245           JUNCTION        3.90          0.530        0.320
  WS02006247           JUNCTION        3.92          0.504        0.256
  WS02006248           JUNCTION        3.77          0.380        0.000
  WS02006249           JUNCTION        3.81          0.390        0.000
  WS02006239           JUNCTION        4.61          0.866        0.424
  WS02006251           JUNCTION        3.26          0.926        0.254
  WS02006252           JUNCTION        4.33          1.100        0.000
  WS02006253           JUNCTION        3.38          0.900        1.580
  WS02006256           JUNCTION        7.06          2.050        0.000
  WS02006228           JUNCTION        5.07          1.280        0.920
  WS02006229           JUNCTION        0.01          0.026        1.044
  HS02004817           JUNCTION        0.46          0.067        1.673
  YS02001745           JUNCTION        0.76          0.293        1.057
  YS02001748           JUNCTION        6.35          0.784        0.406
  YS02001751           JUNCTION        6.36          0.770        0.430
  YS02001754           JUNCTION        6.38          0.886        0.264
  YS02001762           JUNCTION        6.40          1.072        0.078
  YS02001765           JUNCTION        6.40          1.016        0.084
  YS02001767           JUNCTION        6.39          0.969        0.061
  YS02001770           JUNCTION        6.39          0.920        0.000
  YS02001774           JUNCTION        6.40          1.046        0.004
  YS02001779           JUNCTION        6.37          0.680        0.000
  YS02001882           JUNCTION        2.55          0.696        0.134
  YS02001884           JUNCTION        2.56          0.725        0.145
  YS02001759           JUNCTION        6.41          1.114        0.096
  YS02001887           JUNCTION        2.62          0.792        0.158
  YS02001890           JUNCTION        2.64          0.760        0.000
  YS02001898           JUNCTION        2.52          0.674        0.066
  YS02001901           JUNCTION        2.59          0.807        0.063
  YS02001904           JUNCTION        2.58          0.729        0.121
  YS02001907           JUNCTION        3.12          0.950        0.000
  YS02001910           JUNCTION        2.68          0.990        0.110
  YS02001915           JUNCTION        2.54          0.925        0.075
  YS02001918           JUNCTION        2.40          0.810        0.000
  YS02001619           JUNCTION        6.37          0.610        0.000
  YS02001629           JUNCTION        6.37          0.470        0.000
  YS02001641           JUNCTION        6.40          0.958        0.142
  YS02001644           JUNCTION        6.40          0.920        0.000
  YS02001652           JUNCTION        6.38          1.060        0.070
  YS02001655           JUNCTION        6.37          1.074        0.126
  YS02001920           JUNCTION        2.43          1.102        0.038
  YS02001923           JUNCTION        0.01          0.800        0.020
  YS02001926           JUNCTION        0.01          0.900        0.000
  YS02001929           JUNCTION        0.01          0.780        0.000
  YS02001658           JUNCTION        6.35          1.044        0.256
  YS02001661           JUNCTION        1.49          0.883        0.507
  YS02001622           JUNCTION        6.37          0.620        0.000
  YS02001633           JUNCTION        6.40          0.960        0.100
  YS02001649           JUNCTION        6.40          1.050        0.000
  YS02001757           JUNCTION        6.42          1.210        0.000
  YS02001895           JUNCTION        2.53          0.662        0.088
  YS02001625           JUNCTION        6.38          0.780        0.000
  YS02163301           JUNCTION        6.39          0.902        0.128
  YS02163601           JUNCTION        6.40          1.034        0.046
  YS02164001           JUNCTION        6.40          0.965        0.135
  YS02001647           JUNCTION        6.38          0.799        0.101
  YS02006553           JUNCTION        3.21          0.982        0.208
  YS02006561           JUNCTION        2.43          0.775        0.375
  YS02006556           JUNCTION        2.84          0.927        0.423
  YS02006558           JUNCTION        2.82          0.932        0.468
  YS02001783           JUNCTION        2.64          0.983        0.617
  YS02001784           JUNCTION        2.60          0.934        0.556
  YS02001786           JUNCTION        2.52          0.828        0.602
  YS02001788           JUNCTION        2.47          0.920        0.560
  YS02001790           JUNCTION        3.23          1.157        0.000
  YS02001791           JUNCTION        3.34          1.920        0.000
  YS02001793           JUNCTION        3.66          1.651        0.949
  
  
  *********************
  Node Flooding Summary
  *********************
  
  Flooding refers to all water that overflows a node, whether it ponds or not.
  --------------------------------------------------------------------------
                                                             Total   Maximum
                                 Maximum   Time of Max       Flood    Ponded
                        Hours       Rate    Occurrence      Volume     Depth
  Node                 Flooded       LPS   days hr:min    10^6 ltr    Meters
  --------------------------------------------------------------------------
  WS02006248              0.44    150.58      0  01:39       0.139     0.000
  WS02006249              3.33    365.96      0  01:32       1.284     0.000
  WS02006252              0.01     24.12      0  01:32       0.000     0.000
  WS02006256              5.07    835.03      0  01:40      10.807     0.000
  YS02001770              1.11    256.35      0  03:01       0.357     0.000
  YS02001779              3.98    851.17      0  02:45       6.443     0.000
  YS02001890              1.75    299.67      0  01:56       1.275     0.000
  YS02001907              2.28   1197.50      0  03:01       6.358     0.000
  YS02001918              0.01     88.28      0  01:33       0.000     0.000
  YS02001619              0.01     95.60      0  01:27       0.000     0.000
  YS02001629              0.01    229.80      0  01:27       0.002     0.000
  YS02001644              5.98   1924.36      0  03:01      17.301     0.000
  YS02001926              0.01     13.80      0  01:33       0.000     0.000
  YS02001929              0.01    264.47      0  01:33       0.001     0.000
  YS02001622              0.01    104.30      0  01:27       0.000     0.000
  YS02001649              1.24    590.46      0  03:01       1.379     0.000
  YS02001625              3.01    801.47      0  03:01       4.633     0.000
  YS02001790              0.01    114.45      0  05:12       0.000     0.000
  YS02001791              0.01    211.66      0  05:11       0.000     0.000
  JK-storage              0.62    690.27      0  01:32       0.617     0.000
  XR-storage              6.03   1300.68      0  03:01      10.739     0.000
  
  
  **********************
  Storage Volume Summary
  **********************
  
  --------------------------------------------------------------------------------------------------
                         Average     Avg  Evap Exfil       Maximum     Max    Time of Max    Maximum
                          Volume    Pcnt  Pcnt  Pcnt        Volume    Pcnt     Occurrence    Outflow
  Storage Unit           1000 m3    Full  Loss  Loss       1000 m3    Full    days hr:min        LPS
  --------------------------------------------------------------------------------------------------
  JK-storage               0.201      69     0     0         0.291     100       0  01:32     983.00
  CC-storage               3.460      22     0     0         4.076      26       0  03:01     400.00
  XR-storage               0.871      94     0     0         0.926     100       0  01:47     380.00
  
  
  ***********************
  Outfall Loading Summary
  ***********************
  
  ---------------------------------------------------------------------------------------------------------------------------------
                         Flow       Avg       Max       Total         Total         Total         Total         Total         Total
                         Freq      Flow      Flow      Volume           COD            SS            TN            TP         NH4-N
  Outfall Node           Pcnt       LPS       LPS    10^6 ltr            kg            kg            kg            kg            kg
  ---------------------------------------------------------------------------------------------------------------------------------
  WSC                   99.98    892.48   1381.57      23.982      2950.213      5427.125       136.505        14.956        79.579
  ---------------------------------------------------------------------------------------------------------------------------------
  System                99.98    892.48   1381.57      23.982      2950.213      5427.125       136.505        14.956        79.579
  
  
  ********************
  Link Flow Summary
  ********************
  
  -----------------------------------------------------------------------------
                                 Maximum  Time of Max   Maximum    Max/    Max/
                                  |Flow|   Occurrence   |Veloc|    Full    Full
  Link                 Type          LPS  days hr:min     m/sec    Flow   Depth
  -----------------------------------------------------------------------------
  WS02003066WSF200     CONDUIT   1000.99     0  01:36      3.05    0.17    0.33
  WS02006287WS02006284 CONDUIT    934.56     0  01:35      2.63    0.43    0.46
  WS02006284WS02006280 CONDUIT    937.79     0  01:34      2.86    0.39    0.44
  WS02006280WS02006229 CONDUIT    969.00     0  01:34      4.53    0.21    0.75
  WS02006229WS02006228 CONDUIT    976.73     0  01:34      1.94    3.24    1.00
  WS02006256WS02006235 CONDUIT    288.92     0  00:00      4.23    3.06    1.00
  WS02006253WS02006251 CONDUIT    287.29     0  01:32      0.83    0.86    1.00
  WS02006252WS02006251 CONDUIT    403.50     0  05:34      3.21    1.48    1.00
  WS02006251WS02006249 CONDUIT    485.79     0  02:20      1.26    1.40    1.00
  WS02006249WS02006248 CONDUIT    416.87     0  05:00      1.14    2.28    1.00
  WS02006248WS02006247 CONDUIT    416.49     0  06:30      1.11    0.91    1.00
  WS02006247WS02006245 CONDUIT    416.29     0  06:30      1.08    3.30    1.00
  WS02006245WS02006243 CONDUIT    416.56     0  06:30      1.09    1.23    1.00
  WS02006243WS02006242 CONDUIT    416.97     0  06:30      1.08    0.89    1.00
  WS02006242WS02006240 CONDUIT    417.27     0  06:30      1.08    1.66    1.00
  WS02006240WS02006239 CONDUIT    418.61     0  06:30      1.09    1.32    1.00
  WS02006239WS02006238 CONDUIT    419.15     0  06:30      1.09    1.34    1.00
  WS02006238WS02006235 CONDUIT    419.94     0  06:30      1.45    0.94    1.00
  WS02006235WS02006234 CONDUIT    522.74     0  05:34      1.36    5.52    1.00
  WS02006234WS02006232 CONDUIT    522.99     0  05:34      1.39    1.06    1.00
  WS02006232WS02006231 CONDUIT    523.19     0  05:34      1.36    1.10    1.00
  WS02006231WS02006230 CONDUIT    522.38     0  05:34      1.42    7.92    1.00
  WS02006230WS02006229 CONDUIT    533.13     0  05:34      1.39   11.86    1.00
  WS02006228WS02006109 CONDUIT    976.87     0  01:34      1.94    4.27    1.00
  WS02006116WS02004401 CONDUIT   1015.93     0  01:34      1.29    1.40    1.00
  WS02006115WS02006116 CONDUIT   1016.08     0  01:34      1.29    1.30    1.00
  WS02006113WS02006111 CONDUIT    977.70     0  01:34      2.66    1.17    1.00
  WS02006112WS02006115 CONDUIT   1016.07     0  01:34      1.29    0.60    1.00
  WS02006111WS02006112 CONDUIT    977.88     0  01:34      1.95    0.46    1.00
  WS02006110WS02006113 CONDUIT    977.90     0  01:34      1.95    0.89    1.00
  WS02006109WS02006110 CONDUIT    978.00     0  01:34      1.95    1.88    1.00
  WS02004411WS02004412 CONDUIT    993.92     0  01:36      1.29    1.41    0.96
  WS02004401WS02004402 CONDUIT   1016.33     0  01:34      1.29    1.22    1.00
  WS02004413WS02003067 CONDUIT    996.36     0  01:35      1.63    0.43    0.73
  WS02004412WS02004413 CONDUIT    994.80     0  01:35      1.28    0.67    0.97
  WS02004410WS02004411 CONDUIT    993.54     0  01:36      1.27    1.36    0.99
  WS02004409WS02004410 CONDUIT   1008.67     0  01:34      1.29    1.30    1.00
  WS02004407WS02004409 CONDUIT   1016.30     0  01:34      1.85    0.36    0.71
  WS02004406WS02004407 CONDUIT   1019.45     0  01:34      1.72    0.46    0.71
  WS02004405WS02004406 CONDUIT   1018.65     0  01:34      1.30    2.01    1.00
  WS02004404WS02004405 CONDUIT   1018.66     0  01:34      1.30    9.98    1.00
  WS02004403WS02004404 CONDUIT   1017.50     0  01:34      1.30    0.74    1.00
  WS02004402WS02004403 CONDUIT   1017.24     0  01:34      1.30    1.46    1.00
  WS02004139WS02001211 CONDUIT    382.77     0  03:15      0.90    0.48    0.65
  WS02004138WS02004139 CONDUIT    395.52     0  00:00      3.64    0.08    0.47
  WS02003067WS02003066 CONDUIT   1000.27     0  01:35      1.71    0.32    0.51
  WS02001213WS02003059 CONDUIT    398.05     0  03:14      0.89    0.66    0.88
  WS02001212WS02001213 CONDUIT    395.24     0  03:15      1.32    0.61    0.57
  WS02001211WS02001212 CONDUIT    392.86     0  03:15      0.78    0.30    0.72
  WS02003072WS02003073 CONDUIT   1378.86     0  01:44      1.99    2.98    0.59
  WS02003069WS02003072 CONDUIT   1379.03     0  01:43      1.84    0.66    0.63
  WS02003060WS02003069 CONDUIT   1378.57     0  01:42      2.04    0.54    0.58
  WS02003059WS02003060 CONDUIT    401.73     0  03:29      0.95    0.26    0.79
  HS02004901HS02004770 CONDUIT     47.75     0  01:32      0.11    0.18    0.61
  HS02004876HS02004881 CONDUIT    177.76     0  01:33      1.41    1.89    0.20
  HS02004870HS02004876 CONDUIT    143.30     0  01:35      0.95    0.10    0.22
  HS02004842HS02004848 CONDUIT     21.86     0  01:49      0.09    0.01    0.35
  HS02004837HS02004842 CONDUIT     22.38     0  01:49      0.42    0.01    0.37
  HS02004830HS02004837 CONDUIT     81.97     0  01:35      0.70    0.08    0.18
  HS02004824HS02004830 CONDUIT     82.88     0  01:37      0.63    0.11    0.25
  HS02004817HS02004824 CONDUIT    166.01     0  01:39      0.37    0.07    0.64
  HS02004770HS02004777 CONDUIT    244.64     0  01:32      0.57    0.45    0.62
  HS02004799HS02004480 CONDUIT    605.42     0  01:33      1.21    0.76    0.71
  HS02004792HS02004799 CONDUIT    554.25     0  01:33      1.36    0.34    0.58
  HS02004788HS02004792 CONDUIT    319.85     0  01:34      1.40    0.21    0.33
  HS02004785HS02004788 CONDUIT    244.45     0  01:33      1.02    1.84    0.34
  HS02004777HS02004785 CONDUIT    244.32     0  01:33      0.67    0.30    0.52
  HS02004480HS02004478 CONDUIT    712.97     0  01:33      1.74    3.00    0.59
  HS02004479HS02004480 CONDUIT    107.65     0  01:33      0.45    0.10    0.68
  HS02004862HS02004870 CONDUIT    109.57     0  01:36      0.90    0.12    0.17
  HS02004848HS02004852 CONDUIT     51.63     0  01:36      0.58    0.06    0.13
  HS02004856HS02004862 CONDUIT     76.86     0  01:35      0.67    0.08    0.16
  HS02004852HS02004856 CONDUIT     51.73     0  01:36      0.39    0.06    0.19
  HS02004802HS02004478 CONDUIT    227.64     0  01:38      0.57    0.20    0.58
  HS02004478WS02006287 CONDUIT    934.66     0  01:35      2.37    0.26    0.44
  HS02004817HS02004807 CONDUIT    166.71     0  01:39      0.30    0.10    0.81
  HS02004807HS02004802 CONDUIT    226.44     0  01:37      0.51    0.43    0.64
  YS02001759YS02001757 CONDUIT    899.39     0  01:41      1.15    0.64    1.00
  YS02001762YS02001759 CONDUIT    370.53     0  01:26      0.47    0.43    1.00
  YS02001765YS02001762 CONDUIT    368.48     0  01:32      0.47    0.35    1.00
  YS02001770YS02001767 CONDUIT    371.61     0  01:26      0.50    1.47    1.00
  YS02001774YS02001770 CONDUIT    851.17     0  02:33      1.08    0.54    1.00
  YS02001779YS02001774 CONDUIT    851.17     0  02:45      1.08    0.43    1.00
  YS02001649YS02001757 CONDUIT    889.67     0  01:39      1.13    0.54    1.00
  YS02001767YS02001765 CONDUIT    368.54     0  01:35      0.48    0.46    1.00
  YS02006561YS02001783 CONDUIT   1024.12     0  01:31      2.27    0.53    1.00
  YS02001783YS02001784 CONDUIT   1024.20     0  01:31      2.04    1.41    1.00
  YS02001784YS02001785 CONDUIT   1025.17     0  01:31      2.08    2.39    1.00
  YS02001788YS02001790 CONDUIT    983.94     0  02:00      2.48    0.73    1.00
  YS02001790YS02001791 CONDUIT    984.22     0  01:51      2.97    1.07    1.00
  YS02001791YS02001793 CONDUIT    984.36     0  01:51      5.82    0.42    1.00
  YS02001910YS02001907 CONDUIT    911.58     0  03:01      1.16    0.51    1.00
  YS02001786YS02001788 CONDUIT   1004.73     0  01:31      2.32    1.94    1.00
  YS02001915YS02001910 CONDUIT    911.29     0  03:01      1.16    0.45    1.00
  YS02001918YS02001915 CONDUIT    436.71     0  01:32      0.56    0.24    1.00
  YS02001923YS02001920 CONDUIT    403.08     0  01:33      0.91    0.18    1.00
  YS02001926YS02001923 CONDUIT    463.59     0  01:33      1.00    0.66    1.00
  YS02001929YS02001926 CONDUIT    352.44     0  03:01      1.07    0.17    1.00
  YS02001920YS02001918 CONDUIT    401.63     0  01:34      0.85    0.39    1.00
  YS02001629YS02163301 CONDUIT    283.09     0  01:26      0.36    0.35    1.00
  YS02001619YS02001622 CONDUIT    574.86     0  03:01      0.86    0.85    1.00
  YS02001622YS02001625 CONDUIT    575.15     0  03:01      0.73    0.31    1.00
  YS02001625YS02001629 CONDUIT    258.13     0  01:26      0.39    0.12    1.00
  YS02163301YS02001633 CONDUIT    277.02     0  01:26      0.35    0.26    1.00
  YS02163601YS02164001 CONDUIT    458.40     0  01:28      0.58    0.41    1.00
  YS02164001YS02001641 CONDUIT    456.53     0  01:28      0.58    0.62    1.00
  YS02001641YS02001644 CONDUIT    458.24     0  01:28      0.58    1.48    1.00
  YS02001647YS02001649 CONDUIT    846.70     0  02:29      1.08    0.45    1.00
  YS02006553YS02006556 CONDUIT    731.46     0  04:02      0.93    0.63    1.00
  YS02006556YS02006558 CONDUIT    731.60     0  04:02      0.93    0.58    1.00
  YSB6556YSB1171       CONDUIT     59.52     0  01:34      0.17    0.06    0.88
  YS02001907YS02006553 CONDUIT    731.38     0  04:02      0.81    0.86    1.00
  YS02006558YS02006561 CONDUIT   1062.77     0  01:32      3.77    2.35    1.00
  YS02001633YS02163601 CONDUIT    459.78     0  01:28      0.59    0.48    1.00
  YS02001644YS02001647 CONDUIT    846.70     0  02:29      1.08    0.50    1.00
  YS02001745YS02001748 CONDUIT    667.49     0  03:01      1.86    0.26    1.00
  YS02001748YS02001751 CONDUIT    667.81     0  03:01      1.39    0.34    1.00
  YS02001751YS02001754 CONDUIT    668.45     0  03:01      1.15    0.32    1.00
  YS02001754YS02001757 CONDUIT    669.15     0  03:01      0.85    0.27    1.00
  YS02001882YS02001884 CONDUIT     36.84     0  01:29      0.22    0.04    1.00
  YS02001884YS02001887 CONDUIT     64.45     0  01:29      0.16    0.09    1.00
  YS02001890YS02001895 CONDUIT    593.47     0  01:32      0.76    0.28    1.00
  YS02001895YS02001898 CONDUIT    597.23     0  01:32      0.76    1.04    1.00
  YS02001898YS02001901 CONDUIT    602.11     0  01:32      0.77    0.39    1.00
  YS02001901YS02001904 CONDUIT    604.18     0  01:32      0.77    0.94    1.00
  YS02001904YS02001907 CONDUIT    605.74     0  01:32      0.77    0.21    1.00
  YS02001887YS02001890 CONDUIT    815.79     0  01:57      1.04    1.40    1.00
  YS02001652YS02001649 CONDUIT    639.70     0  03:01      0.84    0.32    1.00
  YS02001655YS02001652 CONDUIT    639.59     0  03:01      1.25    0.31    1.00
  YS02001658YS02001655 CONDUIT    639.24     0  03:01      1.61    0.27    1.00
  YS02001661YS02001658 CONDUIT    638.98     0  03:01      1.99    0.25    1.00
  YS02001664YS02001661 CONDUIT    801.19     0  01:41      1.90    0.25    0.84
  YSB1154YSB6556       CONDUIT     59.44     0  01:33      0.17    0.11    0.84
  YSB1174YSB1171       CONDUIT     50.30     0  01:30      0.14    0.08    0.92
  YSB1171HS02004479    CONDUIT    107.71     0  01:33      0.54    0.07    0.78
  HS02004881HS02006253 CONDUIT    284.43     0  01:32      2.76    0.06    0.57
  YS02001793JiankangQianchi CONDUIT   1024.24     0  01:30     16.81    0.08    1.00
  YS02001757CaochengTiaoxuchi CONDUIT   2182.40     0  01:41      3.80    0.96    1.00
  WSF200WS02003060     CONDUIT   1004.60     0  01:36      2.06    0.22    0.46
  1                    CONDUIT   1381.57     0  01:43      3.62    0.48    0.49
  CC-Pump-1            PUMP       200.00     0  02:10              1.00
  CC-Pump-2            PUMP       200.00     0  04:30              1.00
  JK-Pump-1            PUMP       300.00     0  00:00              1.00
  JK-Pump-2            PUMP       683.00     0  01:40              1.00
  XR-Pump-1            PUMP        95.00     0  00:00              1.00
  XR-Pump-2            PUMP        95.00     0  00:00              1.00
  XR-Pump-3            PUMP        95.00     0  00:00              1.00
  XR-Pump-4            PUMP        95.00     0  00:00              1.00
  
  
  ***************************
  Flow Classification Summary
  ***************************
  
  -------------------------------------------------------------------------------------
                      Adjusted    ---------- Fraction of Time in Flow Class ---------- 
                       /Actual         Up    Down  Sub   Sup   Up    Down  Norm  Inlet 
  Conduit               Length    Dry  Dry   Dry   Crit  Crit  Crit  Crit  Ltd   Ctrl  
  -------------------------------------------------------------------------------------
  WS02003066WSF200        1.00   0.01  0.02  0.00  0.00  0.97  0.00  0.00  0.39  0.00
  WS02006287WS02006284    1.00   0.03  0.01  0.00  0.58  0.37  0.00  0.00  0.61  0.00
  WS02006284WS02006280    1.00   0.04  0.00  0.00  0.00  0.00  0.00  0.96  0.00  0.00
  WS02006280WS02006229    1.00   0.04  0.00  0.00  0.05  0.13  0.00  0.78  0.06  0.00
  WS02006229WS02006228    1.00   0.00  0.00  0.00  1.00  0.00  0.00  0.00  0.00  0.00
  WS02006256WS02006235    1.00   0.00  0.00  0.00  1.00  0.00  0.00  0.00  0.00  0.00
  WS02006253WS02006251    1.00   0.02  0.02  0.00  0.96  0.00  0.01  0.00  0.00  0.00
  WS02006252WS02006251    1.00   0.07  0.00  0.00  0.33  0.00  0.60  0.00  0.00  0.00
  WS02006251WS02006249    1.00   0.00  0.00  0.00  1.00  0.00  0.00  0.00  0.13  0.00
  WS02006249WS02006248    1.00   0.00  0.01  0.00  0.96  0.00  0.04  0.00  0.00  0.00
  WS02006248WS02006247    1.00   0.01  0.00  0.00  0.99  0.00  0.00  0.00  0.05  0.00
  WS02006247WS02006245    1.00   0.00  0.00  0.00  0.99  0.00  0.00  0.00  0.00  0.00
  WS02006245WS02006243    1.00   0.00  0.00  0.00  0.97  0.00  0.00  0.03  0.00  0.00
  WS02006243WS02006242    1.00   0.00  0.00  0.00  0.99  0.00  0.00  0.00  0.14  0.00
  WS02006242WS02006240    1.00   0.00  0.00  0.00  0.99  0.00  0.01  0.00  0.00  0.00
  WS02006240WS02006239    1.00   0.00  0.00  0.00  0.96  0.00  0.00  0.04  0.01  0.00
  WS02006239WS02006238    1.00   0.00  0.00  0.00  1.00  0.00  0.00  0.00  0.09  0.00
  WS02006238WS02006235    1.00   0.00  0.00  0.00  1.00  0.00  0.00  0.00  0.00  0.00
  WS02006235WS02006234    1.00   0.00  0.00  0.00  0.98  0.00  0.02  0.00  0.00  0.00
  WS02006234WS02006232    1.00   0.00  0.00  0.00  1.00  0.00  0.00  0.00  0.04  0.00
  WS02006232WS02006231    1.00   0.00  0.00  0.00  1.00  0.00  0.00  0.00  0.00  0.00
  WS02006231WS02006230    1.00   0.00  0.00  0.00  0.79  0.00  0.21  0.00  0.00  0.00
  WS02006230WS02006229    1.00   0.00  0.00  0.00  1.00  0.00  0.00  0.00  0.00  0.00
  WS02006228WS02006109    1.00   0.00  0.00  0.00  1.00  0.00  0.00  0.00  0.00  0.00
  WS02006116WS02004401    1.00   0.01  0.00  0.00  0.99  0.00  0.00  0.00  0.00  0.00
  WS02006115WS02006116    1.00   0.01  0.00  0.00  0.99  0.00  0.00  0.00  0.00  0.00
  WS02006113WS02006111    1.00   0.01  0.00  0.00  0.18  0.82  0.00  0.00  0.12  0.00
  WS02006112WS02006115    1.00   0.01  0.00  0.00  0.99  0.00  0.00  0.00  0.00  0.00
  WS02006111WS02006112    1.00   0.01  0.00  0.00  0.99  0.00  0.00  0.00  0.73  0.00
  WS02006110WS02006113    1.00   0.00  0.00  0.00  0.99  0.00  0.00  0.00  0.00  0.00
  WS02006109WS02006110    1.00   0.00  0.00  0.00  0.99  0.00  0.00  0.00  0.00  0.00
  WS02004411WS02004412    1.00   0.02  0.00  0.00  0.98  0.00  0.00  0.00  0.00  0.00
  WS02004401WS02004402    1.00   0.01  0.00  0.00  0.99  0.00  0.00  0.00  0.00  0.00
  WS02004413WS02003067    1.00   0.02  0.01  0.00  0.00  0.00  0.97  0.00  0.00  0.00
  WS02004412WS02004413    1.00   0.02  0.00  0.00  0.98  0.00  0.00  0.00  0.01  0.00
  WS02004410WS02004411    1.00   0.02  0.00  0.00  0.98  0.00  0.00  0.00  0.00  0.00
  WS02004409WS02004410    1.00   0.02  0.00  0.00  0.98  0.00  0.00  0.00  0.02  0.00
  WS02004407WS02004409    1.00   0.02  0.00  0.00  0.98  0.00  0.00  0.00  0.94  0.00
  WS02004406WS02004407    1.00   0.00  0.02  0.00  0.98  0.00  0.00  0.00  0.00  0.00
  WS02004405WS02004406    1.00   0.00  0.00  0.00  1.00  0.00  0.00  0.00  0.00  0.00
  WS02004404WS02004405    1.00   0.00  0.00  0.00  1.00  0.00  0.00  0.00  0.00  0.00
  WS02004403WS02004404    1.00   0.00  0.01  0.00  0.99  0.00  0.00  0.00  0.00  0.00
  WS02004402WS02004403    1.00   0.01  0.00  0.00  0.99  0.00  0.00  0.00  0.00  0.00
  WS02004139WS02001211    1.00   0.00  0.00  0.00  1.00  0.00  0.00  0.00  0.00  0.00
  WS02004138WS02004139    1.00   0.00  0.00  0.00  1.00  0.00  0.00  0.00  1.00  0.00
  WS02003067WS02003066    1.00   0.03  0.00  0.00  0.97  0.00  0.00  0.00  0.00  0.00
  WS02001213WS02003059    1.00   0.00  0.00  0.00  1.00  0.00  0.00  0.00  0.00  0.00
  WS02001212WS02001213    1.00   0.00  0.00  0.00  0.93  0.00  0.07  0.00  0.00  0.00
  WS02001211WS02001212    1.00   0.00  0.00  0.00  1.00  0.00  0.00  0.00  0.00  0.00
  WS02003072WS02003073    1.00   0.00  0.00  0.00  0.00  0.00  0.00  1.00  0.00  0.00
  WS02003069WS02003072    1.00   0.00  0.00  0.00  1.00  0.00  0.00  0.00  0.08  0.00
  WS02003060WS02003069    1.00   0.00  0.00  0.00  0.99  0.01  0.00  0.00  0.05  0.00
  WS02003059WS02003060    1.00   0.00  0.00  0.00  1.00  0.00  0.00  0.00  0.01  0.00
  HS02004901HS02004770    1.00   0.04  0.00  0.00  0.96  0.00  0.00  0.00  0.00  0.00
  HS02004876HS02004881    1.00   0.01  0.00  0.00  0.79  0.20  0.00  0.00  0.00  0.00
  HS02004870HS02004876    1.00   0.00  0.00  0.00  0.99  0.00  0.00  0.00  0.95  0.00
  HS02004842HS02004848    1.00   0.00  0.04  0.00  0.96  0.00  0.00  0.00  0.53  0.00
  HS02004837HS02004842    1.00   0.00  0.00  0.00  1.00  0.00  0.00  0.00  0.11  0.00
  HS02004830HS02004837    1.00   0.00  0.00  0.00  1.00  0.00  0.00  0.00  0.99  0.00
  HS02004824HS02004830    1.00   0.00  0.00  0.00  1.00  0.00  0.00  0.00  0.03  0.00
  HS02004817HS02004824    1.00   0.00  0.00  0.00  1.00  0.00  0.00  0.00  0.86  0.00
  HS02004770HS02004777    1.00   0.00  0.04  0.00  0.96  0.00  0.00  0.00  0.01  0.00
  HS02004799HS02004480    1.00   0.00  0.01  0.00  0.96  0.00  0.03  0.00  0.00  0.00
  HS02004792HS02004799    1.00   0.00  0.00  0.00  1.00  0.00  0.00  0.00  0.98  0.00
  HS02004788HS02004792    1.00   0.00  0.00  0.00  1.00  0.00  0.00  0.00  0.98  0.00
  HS02004785HS02004788    1.00   0.00  0.00  0.00  1.00  0.00  0.00  0.00  0.00  0.00
  HS02004777HS02004785    1.00   0.00  0.00  0.00  1.00  0.00  0.00  0.00  0.10  0.00
  HS02004480HS02004478    1.00   0.04  0.00  0.00  0.66  0.00  0.00  0.30  0.00  0.00
  HS02004479HS02004480    1.00   0.01  0.00  0.00  0.99  0.00  0.00  0.00  0.10  0.00
  HS02004862HS02004870    1.00   0.00  0.00  0.00  1.00  0.00  0.00  0.00  0.02  0.00
  HS02004848HS02004852    1.00   0.04  0.00  0.00  0.96  0.00  0.00  0.00  0.83  0.00
  HS02004856HS02004862    1.00   0.00  0.04  0.00  0.96  0.00  0.00  0.00  0.85  0.00
  HS02004852HS02004856    1.00   0.04  0.00  0.00  0.96  0.00  0.00  0.00  0.69  0.00
  HS02004802HS02004478    1.00   0.04  0.00  0.00  0.96  0.00  0.00  0.00  0.01  0.00
  HS02004478WS02006287    1.00   0.04  0.00  0.00  0.72  0.24  0.00  0.00  0.58  0.00
  HS02004817HS02004807    1.00   0.00  0.04  0.00  0.96  0.00  0.00  0.00  0.01  0.00
  HS02004807HS02004802    1.00   0.04  0.00  0.00  0.96  0.00  0.00  0.00  0.00  0.00
  YS02001759YS02001757    1.00   0.00  0.00  0.00  1.00  0.00  0.00  0.00  0.15  0.00
  YS02001762YS02001759    1.00   0.00  0.00  0.00  1.00  0.00  0.00  0.00  0.01  0.00
  YS02001765YS02001762    1.00   0.00  0.00  0.00  1.00  0.00  0.00  0.00  0.13  0.00
  YS02001770YS02001767    1.00   0.00  0.00  0.00  1.00  0.00  0.00  0.00  0.00  0.00
  YS02001774YS02001770    1.00   0.00  0.04  0.00  0.96  0.00  0.00  0.00  0.01  0.00
  YS02001779YS02001774    1.00   0.00  0.00  0.00  1.00  0.00  0.00  0.00  0.15  0.00
  YS02001649YS02001757    1.00   0.00  0.00  0.00  1.00  0.00  0.00  0.00  0.14  0.00
  YS02001767YS02001765    1.00   0.00  0.00  0.00  1.00  0.00  0.00  0.00  0.00  0.00
  YS02006561YS02001783    1.00   0.04  0.00  0.00  0.53  0.42  0.00  0.00  0.34  0.00
  YS02001783YS02001784    1.00   0.00  0.04  0.00  0.95  0.00  0.00  0.00  0.00  0.00
  YS02001784YS02001785    1.00   0.00  0.00  0.00  1.00  0.00  0.00  0.00  0.15  0.00
  YS02001788YS02001790    1.00   0.00  0.00  0.00  0.58  0.42  0.00  0.00  0.28  0.00
  YS02001790YS02001791    1.00   0.00  0.00  0.00  0.56  0.44  0.00  0.00  0.33  0.00
  YS02001791YS02001793    1.00   0.00  0.00  0.00  0.61  0.39  0.00  0.00  0.02  0.00
  YS02001910YS02001907    1.00   0.00  0.00  0.00  0.99  0.00  0.00  0.01  0.11  0.00
  YS02001786YS02001788    1.00   0.00  0.00  0.00  0.55  0.45  0.00  0.00  0.00  0.00
  YS02001915YS02001910    1.00   0.00  0.00  0.00  0.99  0.01  0.00  0.00  0.12  0.00
  YS02001918YS02001915    1.00   0.00  0.00  0.00  0.99  0.01  0.00  0.00  0.43  0.00
  YS02001923YS02001920    1.00   0.00  0.00  0.00  1.00  0.00  0.00  0.00  0.65  0.00
  YS02001926YS02001923    1.00   0.00  0.02  0.00  0.32  0.00  0.65  0.00  0.00  0.00
  YS02001929YS02001926    1.00   0.00  0.04  0.00  0.96  0.00  0.00  0.00  0.56  0.00
  YS02001920YS02001918    1.00   0.00  0.00  0.00  1.00  0.00  0.00  0.00  0.00  0.00
  YS02001629YS02163301    1.00   0.04  0.00  0.00  0.96  0.00  0.00  0.00  0.00  0.00
  YS02001619YS02001622    1.00   0.04  0.00  0.00  0.96  0.00  0.00  0.00  0.00  0.00
  YS02001622YS02001625    1.00   0.04  0.00  0.00  0.96  0.00  0.00  0.00  0.02  0.00
  YS02001625YS02001629    1.00   0.04  0.01  0.00  0.95  0.00  0.01  0.00  0.00  0.00
  YS02163301YS02001633    1.00   0.00  0.04  0.00  0.96  0.00  0.00  0.00  0.00  0.00
  YS02163601YS02164001    1.00   0.00  0.03  0.00  0.97  0.00  0.00  0.00  0.00  0.00
  YS02164001YS02001641    1.00   0.00  0.02  0.00  0.97  0.00  0.00  0.00  0.05  0.00
  YS02001641YS02001644    1.00   0.00  0.00  0.00  1.00  0.00  0.00  0.00  0.00  0.00
  YS02001647YS02001649    1.00   0.00  0.04  0.00  0.96  0.00  0.00  0.00  0.01  0.00
  YS02006553YS02006556    1.00   0.01  0.00  0.00  0.99  0.00  0.00  0.00  0.03  0.00
  YS02006556YS02006558    1.00   0.00  0.00  0.00  1.00  0.00  0.00  0.00  0.00  0.00
  YSB6556YSB1171          1.00   0.02  0.02  0.00  0.96  0.00  0.00  0.00  0.00  0.00
  YS02001907YS02006553    1.00   0.00  0.01  0.00  0.99  0.00  0.00  0.00  0.00  0.00
  YS02006558YS02006561    1.00   0.04  0.00  0.00  0.32  0.64  0.00  0.00  0.35  0.00
  YS02001633YS02163601    1.00   0.00  0.00  0.00  1.00  0.00  0.00  0.00  0.14  0.00
  YS02001644YS02001647    1.00   0.00  0.04  0.00  0.96  0.00  0.00  0.00  0.00  0.00
  YS02001745YS02001748    1.00   0.00  0.00  0.00  0.94  0.00  0.00  0.06  0.00  0.00
  YS02001748YS02001751    1.00   0.00  0.00  0.00  0.98  0.02  0.00  0.00  0.13  0.00
  YS02001751YS02001754    1.00   0.00  0.00  0.00  0.95  0.00  0.00  0.05  0.01  0.00
  YS02001754YS02001757    1.00   0.00  0.00  0.00  1.00  0.00  0.00  0.00  0.15  0.00
  YS02001882YS02001884    1.00   0.04  0.00  0.00  0.96  0.00  0.00  0.00  0.00  0.00
  YS02001884YS02001887    1.00   0.02  0.01  0.00  0.97  0.00  0.00  0.00  0.00  0.00
  YS02001890YS02001895    1.00   0.00  0.04  0.00  0.96  0.00  0.00  0.00  0.00  0.00
  YS02001895YS02001898    1.00   0.04  0.00  0.00  0.95  0.00  0.01  0.00  0.00  0.00
  YS02001898YS02001901    1.00   0.04  0.00  0.00  0.96  0.00  0.00  0.00  0.00  0.00
  YS02001901YS02001904    1.00   0.04  0.00  0.00  0.96  0.00  0.00  0.00  0.00  0.00
  YS02001904YS02001907    1.00   0.00  0.04  0.00  0.96  0.00  0.00  0.00  0.00  0.00
  YS02001887YS02001890    1.00   0.00  0.00  0.00  0.99  0.00  0.01  0.00  0.00  0.00
  YS02001652YS02001649    1.00   0.00  0.00  0.00  1.00  0.00  0.00  0.00  0.14  0.00
  YS02001655YS02001652    1.00   0.00  0.00  0.00  0.95  0.00  0.00  0.05  0.01  0.00
  YS02001658YS02001655    1.00   0.00  0.04  0.00  0.94  0.02  0.00  0.00  0.01  0.00
  YS02001661YS02001658    1.00   0.04  0.00  0.00  0.94  0.03  0.00  0.00  0.00  0.00
  YS02001664YS02001661    1.00   0.04  0.00  0.00  0.94  0.02  0.00  0.00  0.06  0.00
  YSB1154YSB6556          1.00   0.04  0.00  0.00  0.96  0.00  0.00  0.00  0.01  0.00
  YSB1174YSB1171          1.00   0.02  0.01  0.00  0.97  0.00  0.00  0.00  0.00  0.00
  YSB1171HS02004479       1.00   0.02  0.00  0.00  0.98  0.00  0.00  0.00  0.09  0.00
  HS02004881HS02006253    1.00   0.02  0.00  0.00  0.88  0.02  0.00  0.08  0.77  0.00
  YS02001793JiankangQianchi    1.00   0.00  0.00  0.00  0.85  0.14  0.00  0.00  0.28  0.00
  YS02001757CaochengTiaoxuchi    1.00   0.00  0.05  0.00  0.92  0.03  0.00  0.00  0.00  0.00
  WSF200WS02003060        1.00   0.00  0.01  0.00  0.99  0.00  0.00  0.00  0.24  0.00
  1                       1.00   0.00  0.00  0.00  0.00  1.00  0.00  0.00  0.58  0.00
  
  
  *************************
  Conduit Surcharge Summary
  *************************
  
  ----------------------------------------------------------------------------
                                                           Hours        Hours 
                         --------- Hours Full --------   Above Full   Capacity
  Conduit                Both Ends  Upstream  Dnstream   Normal Flow   Limited
  ----------------------------------------------------------------------------
  WS02006280WS02006229        0.01      0.01      0.01      0.01         0.01
  WS02006229WS02006228        5.07      5.13      5.07      5.92         5.07
  WS02006256WS02006235        6.65      6.66      7.06      5.22         0.01
  WS02006253WS02006251        3.75      3.75      3.79      0.01         0.01
  WS02006252WS02006251        3.57      3.57      4.33      2.78         0.01
[...]
  YS02001649YS02001757        6.40      6.40      6.42      0.01         0.01
  YS02001767YS02001765        6.39      6.39      6.40      0.01         0.01
  YS02006561YS02001783        2.43      2.43      2.64      0.01         0.01
  YS02001783YS02001784        2.60      2.64      2.60      2.88         2.60
  YS02001784YS02001785        2.52      2.60      2.52      3.61         2.52
  YS02001788YS02001790        2.47      2.47      3.23      0.01         0.01
  YS02001790YS02001791        3.23      3.23      3.35      2.57         2.55
  YS02001791YS02001793        3.34      3.34      3.77      0.01         0.01
  YS02001910YS02001907        2.68      2.68      3.12      0.01         0.01
  YS02001786YS02001788        2.47      2.52      2.47      3.26         2.47
  YS02001915YS02001910        2.54      2.54      2.68      0.01         0.01
  YS02001918YS02001915        2.40      2.40      2.54      0.01         0.01
  YS02001923YS02001920        2.25      2.25      2.43      0.01         0.01
  YS02001926YS02001923        0.01      0.01      0.01      0.01         0.01
  YS02001929YS02001926        0.01      0.01      0.01      0.01         0.01
  YS02001920YS02001918        2.40      2.40      2.43      0.01         0.01
  YS02001629YS02163301        6.38      6.38      6.39      0.01         0.01
  YS02001619YS02001622        6.37      6.37      6.37      0.01         0.03
  YS02001622YS02001625        6.37      6.37      6.38      0.01         0.01
  YS02001625YS02001629        6.37      6.37      6.38      0.01         0.01
  YS02163301YS02001633        6.39      6.39      6.40      0.01         0.01
  YS02163601YS02164001        6.40      6.40      6.40      0.01         0.01
  YS02164001YS02001641        6.40      6.40      6.40      0.01         0.01
  YS02001641YS02001644        6.40      6.40      6.40      3.17         3.22
  YS02001647YS02001649        6.38      6.38      6.40      0.01         0.01
  YS02006553YS02006556        2.84      2.84      3.21      0.01         0.01
  YS02006556YS02006558        2.93      2.93      3.26      0.01         0.01
  YSB6556YSB1171              0.01      0.01      0.58      0.01         0.01
  YS02001907YS02006553        3.65      3.65      3.82      0.01         0.01
  YS02006558YS02006561        2.49      2.82      2.49      3.49         2.49
  YS02001633YS02163601        6.40      6.40      6.40      0.01         0.01
  YS02001644YS02001647        6.38      6.38      6.40      0.01         0.01
  YS02001745YS02001748        0.76      0.76      6.35      0.01         0.01
  YS02001748YS02001751        6.35      6.35      6.36      0.01         0.01
  YS02001751YS02001754        6.36      6.36      6.38      0.01         0.01
  YS02001754YS02001757        6.38      6.38      6.42      0.01         0.01
  YS02001882YS02001884        2.55      2.55      2.56      0.01         0.01
  YS02001884YS02001887        2.60      2.60      2.62      0.01         0.01
  YS02001890YS02001895        2.53      2.53      2.69      0.01         0.01
  YS02001895YS02001898        2.52      2.52      2.53      0.01         0.01
  YS02001898YS02001901        2.53      2.53      2.59      0.01         0.01
  YS02001901YS02001904        2.58      2.58      2.59      0.01         0.01
  YS02001904YS02001907        2.58      2.58      3.23      0.01         0.01
  YS02001887YS02001890        2.64      2.64      2.66      1.66         0.01
  YS02001652YS02001649        6.38      6.38      6.40      0.01         0.01
  YS02001655YS02001652        6.37      6.37      6.38      0.01         0.01
  YS02001658YS02001655        6.35      6.35      6.37      0.01         0.01
  YS02001661YS02001658        1.47      1.47      6.35      0.01         0.01
  YS02001664YS02001661        0.01      0.01      2.51      0.01         0.01
  YSB1174YSB1171              0.01      0.01      0.32      0.01         0.01
  HS02004881HS02006253        0.01      0.01      3.38      0.01         0.01
  YS02001793JiankangQianchi        3.66      3.66      4.97      0.01         0.01
  YS02001757CaochengTiaoxuchi        5.98      5.98      6.42      0.01         0.01
  
  
  ***************
  Pumping Summary
  ***************
  
  ---------------------------------------------------------------------------------------------------------
                                                  Min       Avg       Max     Total     Power    % Time Off
                        Percent   Number of      Flow      Flow      Flow    Volume     Usage    Pump Curve
  Pump                 Utilized   Start-Ups       LPS       LPS       LPS  10^6 ltr     Kw-hr    Low   High
  ---------------------------------------------------------------------------------------------------------
  CC-Pump-1               72.34           1      0.00    189.51    200.00     3.840      4.14    0.0    0.0
  CC-Pump-2               44.68           5      0.00    117.38    200.00     1.800      2.56    0.0    0.0
  JK-Pump-1               70.22           4      0.00    270.32    300.00     5.106     63.18    0.0    0.0
  JK-Pump-2               61.71           3      0.00    577.49    683.00     9.367    104.81    0.0   98.1
  XR-Pump-1              100.00           1      0.00     94.35     95.00     2.622     19.80    0.0    0.0
  XR-Pump-2              100.00           1      0.00     94.35     95.00     2.622     19.80    0.0    0.0
  XR-Pump-3               97.88           2      0.00     93.41     95.00     2.508     17.31    0.0    0.0
  XR-Pump-4               97.88           2      0.00     93.41     95.00     2.508     17.31    0.0    0.0
  
  
  ***************************
  Link Pollutant Load Summary
  ***************************
  
  ------------------------------------------------------------------------------------------
                                 COD            SS            TN            TP         NH4-N
  Link                            kg            kg            kg            kg            kg
  ------------------------------------------------------------------------------------------
  WS02003066WSF200          1522.600      2972.382        35.074         2.840        17.811
  WS02006287WS02006284       662.615      1308.406        17.243         1.527         9.012
  WS02006284WS02006280       663.066      1309.105        17.290         1.533         9.042
  WS02006280WS02006229       663.147      1309.364        17.289         1.533         9.041
  WS02006229WS02006228      1504.033      2933.678        34.298         2.747        17.357
  WS02006256WS02006235       292.719       558.252         6.282         0.472         3.131
  WS02006253WS02006251       124.566       252.790         2.613         0.188         1.271
  WS02006252WS02006251       616.117      1200.596        11.844         0.814         5.713
  WS02006251WS02006249       737.465      1447.406        14.419         1.002         6.972
  WS02006249WS02006248       577.868      1127.690        11.336         0.787         5.486
  WS02006248WS02006247       583.329      1138.115        11.466         0.799         5.555
  WS02006247WS02006245       582.324      1135.391        11.457         0.799         5.552
  WS02006245WS02006243       581.669      1133.451        11.454         0.799         5.553
  WS02006243WS02006242       581.256      1131.734        11.460         0.801         5.558
  WS02006242WS02006240       579.683      1127.784        11.438         0.800         5.549
  WS02006240WS02006239       579.232      1126.366        11.432         0.800         5.547
  WS02006239WS02006238       579.688      1127.102        11.437         0.800         5.550
  WS02006238WS02006235       579.645      1126.991        11.424         0.799         5.542
  WS02006235WS02006234       845.664      1633.866        17.139         1.226         8.386
  WS02006234WS02006232       849.115      1640.721        17.227         1.234         8.432
  WS02006232WS02006231       852.647      1647.822        17.315         1.242         8.478
  WS02006231WS02006230       856.542      1655.760        17.408         1.250         8.527
  WS02006230WS02006229       861.716      1666.403        17.522         1.260         8.585
  WS02006228WS02006109      1504.074      2933.851        34.290         2.746        17.352
  WS02006116WS02004401      1537.473      2997.785        35.497         2.875        18.034
  WS02006115WS02006116      1538.691      2999.865        35.541         2.880        18.059
  WS02006113WS02006111      1512.329      2947.520        35.075         2.844        17.843
  WS02006112WS02006115      1539.787      3001.816        35.580         2.884        18.081
  WS02006111WS02006112      1511.702      2946.172        35.057         2.842        17.833
  WS02006110WS02006113      1512.426      2947.515        35.084         2.845        17.849
  WS02006109WS02006110      1512.752      2947.894        35.106         2.848        17.862
  WS02004411WS02004412      1526.750      2979.556        35.214         2.853        17.889
  WS02004401WS02004402      1536.204      2995.596        35.452         2.871        18.009
  WS02004413WS02003067      1523.753      2974.379        35.108         2.843        17.829
  WS02004412WS02004413      1525.056      2976.648        35.158         2.848        17.857
  WS02004410WS02004411      1528.184      2982.004        35.261         2.858        17.914
  WS02004409WS02004410      1529.509      2984.271        35.306         2.862        17.939
  WS02004407WS02004409      1530.733      2986.321        35.347         2.865        17.961
  WS02004406WS02004407      1531.086      2986.807        35.359         2.866        17.967
  WS02004405WS02004406      1532.691      2989.512        35.420         2.872        18.002
  WS02004404WS02004405      1534.215      2992.102        35.452         2.874        18.017
  WS02004403WS02004404      1533.828      2991.553        35.369         2.863        17.963
  WS02004402WS02004403      1534.945      2993.475        35.408         2.867        17.985
  WS02004139WS02001211      1288.273      2235.773        86.808        10.266        52.572
  WS02004138WS02004139      1293.938      2245.513        87.187        10.311        52.801
  WS02003067WS02003066      1522.788      2972.705        35.080         2.841        17.815
  WS02001213WS02003059      1322.905      2289.722        90.491        10.733        54.891
  WS02001212WS02001213      1331.633      2304.497        91.134        10.810        55.284
  WS02001211WS02001212      1333.335      2307.311        91.272        10.827        55.369
  WS02003072WS02003073      2945.832      5421.185       135.696        14.848        79.056
  WS02003069WS02003072      2950.509      5428.884       136.067        14.893        79.285
  WS02003060WS02003069      2953.368      5433.861       136.197        14.907        79.359
  WS02003059WS02003060      1320.480      2285.404        90.366        10.719        54.818
  HS02004901HS02004770        31.241        62.186         0.612         0.047         0.291
  HS02004876HS02004881       101.411       206.321         2.154         0.154         1.046
  HS02004870HS02004876        77.886       158.590         1.700         0.122         0.826
  HS02004842HS02004848        14.996        29.643         0.314         0.022         0.147
  HS02004837HS02004842        19.707        37.150         0.788         0.082         0.444
  HS02004830HS02004837       101.806       187.055         5.289         0.600         3.141
  HS02004824HS02004830       102.662       188.504         5.364         0.610         3.188
  HS02004817HS02004824       158.468       303.817         6.498         0.682         3.738
  HS02004770HS02004777       119.648       241.817         2.495         0.175         1.169
  HS02004799HS02004480       374.818       742.434         8.578         0.702         4.270
  HS02004792HS02004799       343.082       676.936         8.002         0.666         3.998
  HS02004788HS02004792       180.013       356.936         4.687         0.402         2.399
  HS02004785HS02004788       121.028       244.020         2.637         0.193         1.259
  HS02004777HS02004785       120.349       242.943         2.575         0.185         1.220
  HS02004480HS02004478       464.803       922.655        10.233         0.827         5.069
  HS02004479HS02004480        93.769       186.470         1.954         0.161         0.984
  HS02004862HS02004870        60.202       121.267         1.340         0.100         0.653
  HS02004848HS02004852        26.761        53.671         0.548         0.038         0.256
  HS02004856HS02004862        41.867        85.057         0.850         0.058         0.403
  HS02004852HS02004856        26.784        53.714         0.548         0.038         0.257
  HS02004802HS02004478       198.960       387.617         7.079         0.709         3.985
  HS02004478WS02006287       662.704      1308.462        17.260         1.529         9.023
  HS02004817HS02004807       157.288       302.055         6.359         0.664         3.651
  HS02004807HS02004802       198.927       387.522         7.104         0.712         4.002
  YS02001759YS02001757       608.204      1175.165        11.875         0.841         5.792
  YS02001762YS02001759       347.814       668.128         7.044         0.502         3.457
  YS02001765YS02001762       348.641       671.092         7.070         0.504         3.472
  YS02001770YS02001767       354.755       686.652         7.068         0.496         3.451
  YS02001774YS02001770       817.763      1628.144        15.998         1.092         7.769
  YS02001779YS02001774       816.987      1626.754        16.057         1.102         7.811
  YS02001649YS02001757       682.866      1320.987        13.523         0.935         6.529
  YS02001767YS02001765       350.867       676.849         7.116         0.508         3.495
  YS02006561YS02001783      1600.508      3069.482        33.128         2.426        16.338
  YS02001783YS02001784      1600.382      3069.288        33.122         2.426        16.335
  YS02001784YS02001785      1607.762      3081.150        33.835         2.515        16.781
  YS02001788YS02001790      1608.352      3082.120        33.906         2.524        16.826
  YS02001790YS02001791      1609.423      3083.896        34.007         2.537        16.889
  YS02001791YS02001793      1609.275      3083.602        34.002         2.536        16.886
  YS02001910YS02001907       952.093      1849.812        20.354         1.453        10.123
  YS02001786YS02001788      1607.984      3081.538        33.864         2.519        16.799
  YS02001915YS02001910       951.576      1848.765        20.306         1.446        10.092
  YS02001918YS02001915       473.276       888.256        10.552         0.857         5.397
  YS02001923YS02001920       447.695       844.277         8.518         0.610         4.142
  YS02001926YS02001923       444.559       838.569         8.396         0.598         4.072
  YS02001929YS02001926       441.874       833.776         8.299         0.588         4.018
  YS02001920YS02001918       468.786       878.775        10.455         0.851         5.349
  YS02001629YS02163301       210.540       398.242         4.144         0.295         1.982
  YS02001619YS02001622       451.031       868.459         9.084         0.615         4.291
  YS02001622YS02001625       450.695       868.011         9.072         0.614         4.286
  YS02001625YS02001629       204.908       387.230         4.043         0.287         1.932
  YS02163301YS02001633       216.277       409.489         4.243         0.303         2.032
  YS02163601YS02164001       716.036      1349.714        13.902         1.022         6.718
  YS02164001YS02001641       716.696      1350.907        13.901         1.021         6.716
  YS02001641YS02001644       719.095      1355.240        13.936         1.023         6.731
  YS02001647YS02001649       861.636      1658.904        17.207         1.212         8.245
  YS02006553YS02006556       809.996      1516.012        17.529         1.317         8.770
  YS02006556YS02006558       810.475      1516.926        17.495         1.312         8.746
  YSB6556YSB1171              54.543       108.515         1.086         0.087         0.541
  YS02001907YS02006553       809.783      1515.583        17.573         1.324         8.800
  YS02006558YS02006561      1600.456      3069.361        33.127         2.426        16.338
  YS02001633YS02163601       716.593      1350.631        13.878         1.017         6.699
  YS02001644YS02001647       868.771      1672.980        17.320         1.220         8.299
  YS02001745YS02001748       597.843      1178.480        11.860         0.761         5.722
  YS02001748YS02001751       597.349      1177.669        11.870         0.763         5.732
  YS02001751YS02001754       596.695      1176.618        11.859         0.763         5.728
  YS02001754YS02001757       597.869      1178.489        12.028         0.786         5.836
  YS02001882YS02001884         5.136         9.330         0.095         0.007         0.046
  YS02001884YS02001887         8.465        15.568         0.156         0.012         0.076
  YS02001890YS02001895       827.166      1598.331        15.723         1.198         7.699
  YS02001895YS02001898       827.024      1598.184        15.716         1.197         7.696
  YS02001898YS02001901       826.923      1597.937        15.715         1.197         7.695
  YS02001901YS02001904       826.751      1597.725        15.728         1.199         7.704
  YS02001904YS02001907       827.250      1598.443        15.793         1.208         7.745
  YS02001887YS02001890      1075.824      2094.737        20.307         1.549         9.939
  YS02001652YS02001649       544.145      1053.799        10.846         0.792         5.122
  YS02001655YS02001652       544.701      1054.716        10.862         0.793         5.130
  YS02001658YS02001655       544.293      1054.102        10.778         0.782         5.075
  YS02001661YS02001658       544.656      1054.699        10.787         0.782         5.079
  YS02001664YS02001661       555.764      1072.263        11.064         0.801         5.207
  YSB1154YSB6556              54.069       107.774         1.038         0.081         0.511
  YSB1174YSB1171              37.703        75.533         0.747         0.059         0.369
  YSB1171HS02004479           93.610       186.161         1.960         0.162         0.989
  HS02004881HS02006253       113.978       232.507         2.383         0.169         1.155
  YS02001793JiankangQianchi      1609.661      3084.209        34.016         2.538        16.894
  YS02001757CaochengTiaoxuchi       924.150      1769.088        18.295         1.259         8.852
  WSF200WS02003060          1522.058      2971.474        35.061         2.839        17.805
  1                         2950.213      5427.125       136.505        14.956        79.579
  CC-Pump-1                  421.676       822.363         8.090         0.557         3.901
  CC-Pump-2                  194.150       377.610         3.748         0.257         1.809
  JK-Pump-1                  457.590       881.830         9.588         0.714         4.755
  JK-Pump-2                  996.437      1935.139        20.317         1.490        10.003
  XR-Pump-1                  335.928       581.373        22.967         2.724        13.930
  XR-Pump-2                  335.928       581.373        22.967         2.724        13.930
  XR-Pump-3                  312.942       544.580        20.772         2.450        12.560
  XR-Pump-4                  312.942       544.580        20.772         2.450        12.560
  

  Analysis begun on:  Wed Jul 14 13:30:09 2021
  Analysis ended on:  Wed Jul 14 13:30:11 2021
  Total elapsed time: 00:00:02