
  EPA STORM WATER MANAGEMENT MODEL - VERSION 5.1 (Build 5.3.0.dev0)
  --------------------------------------------------------------

  WARNING 04: minimum elevation drop used for Conduit WS02004404WS02004405
  WARNING 03: negative offset ignored for Link YS02001904YS02001907
  
  *********************************************************
  NOTE: The summary statistics displayed in this report are
  based on results found at every computational time step,  
  not just on results from each reporting time step.
  *********************************************************
  
  ****************
  Analysis Options
  ****************
  Flow Units ............... LPS
  Process Models:
    Rainfall/Runoff ........ YES
    RDII ................... NO
    Snowmelt ............... NO
    Groundwater ............ NO
    Flow Routing ........... YES
    Ponding Allowed ........ NO
    Water Quality .......... YES
  Infiltration Method ...... HORTON
  Flow Routing Method ...... DYNWAVE
  Surcharge Method ......... EXTRAN
  Starting Date ............ 08/28/2015 08:00:00
  Ending Date .............. 08/28/2015 15:50:00
  Antecedent Dry Days ...... 8.0
  Report Time Step ......... 00:01:00
  Wet Time Step ............ 00:01:00
  Dry Time Step ............ 00:01:00
  Routing Time Step ........ 5.00 sec
  Variable Time Step ....... YES
  Maximum Trials ........... 8
  Number of Threads ........ 4
  Head Tolerance ........... 0.001500 m
  
  
  **************************        Volume         Depth
  Runoff Quantity Continuity     hectare-m            mm
  **************************     ---------       -------
  Total Precipitation ......        10.887        23.836
  Evaporation Loss .........         0.000         0.000
  Infiltration Loss ........         1.411         3.089
  Surface Runoff ...........         8.292        18.155
  Final Storage ............         1.186         2.596
  Continuity Error (%) .....        -0.016
  
  
  **************************           COD            SS            TN            TP         NH4-N
  Runoff Quality Continuity             kg            kg            kg            kg            kg
  **************************    ----------    ----------    ----------    ----------    ----------
  Initial Buildup ..........     41378.656     70582.865      1804.177       168.684      1032.807
  Surface Buildup ..........        41.425        91.431         2.568         0.227         1.442
  Wet Deposition ...........         0.000         0.000         0.000         0.000         0.000
  Sweeping Removal .........         0.000         0.000         0.000         0.000         0.000
  Infiltration Loss ........       164.554       320.127         3.263         0.236         1.574
  BMP Removal ..............         0.000         0.000         0.000         0.000         0.000
  Surface Runoff ...........      9366.500     18283.806       183.722        12.955        88.133
  Remaining Buildup ........     31885.964     52064.522      1619.692       155.715       944.511
  Continuity Error (%) .....         0.007         0.008         0.004         0.003         0.003
  
  
  **************************        Volume        Volume
  Flow Routing Continuity        hectare-m      10^6 ltr
  **************************     ---------     ---------
  Dry Weather Inflow .......         0.616         6.165
  Wet Weather Inflow .......         8.290        82.900
  Groundwater Inflow .......         0.000         0.000
  RDII Inflow ..............         0.000         0.000
  External Inflow ..........         0.102         1.024
  External Outflow .........         2.319        23.189
  Flooding Loss ............         6.217        62.172
  Evaporation Loss .........         0.000         0.000
  Exfiltration Loss ........         0.000         0.000
  Initial Stored Volume ....         0.076         0.761
  Final Stored Volume ......         0.656         6.562
  Continuity Error (%) .....        -1.183
  
  
  **************************           COD            SS            TN            TP         NH4-N
  Quality Routing Continuity            kg            kg            kg            kg            kg
  **************************    ----------    ----------    ----------    ----------    ----------
  Dry Weather Inflow .......      1541.201      2465.922       147.955        18.494        92.472
  Wet Weather Inflow .......      9365.132     18281.402       183.691        12.953        88.118
  Groundwater Inflow .......         0.000         0.000         0.000         0.000         0.000
  RDII Inflow ..............         0.000         0.000         0.000         0.000         0.000
  External Inflow ..........       183.418       293.469        17.608         2.201        11.005
  External Outflow .........      2887.209      5306.342       135.323        14.880        79.020
  Flooding Loss ............      7492.560     14478.445       186.215        15.960        96.893
  Exfiltration Loss ........         0.000         0.000         0.000         0.000         0.000
  Mass Reacted .............         0.000         0.000         0.000         0.000         0.000
  Initial Stored Mass ......         0.000         0.000         0.000         0.000         0.000
  Final Stored Mass ........       593.359      1064.875        24.112         2.494        13.767
  Continuity Error (%) .....         1.052         0.908         1.032         0.930         0.999
  
  
  *************************
  Highest Continuity Errors
  *************************
  Node HS02004842 (7.73%)
  Node JK-storage (-7.38%)
  Node YS02001884 (5.76%)
  Node HS02004817 (1.58%)
  Node WS02006253 (1.49%)
  
  
  ***************************
  Time-Step Critical Elements
  ***************************
  Link WS02006252WS02006251 (70.40%)
  Link WS02006280WS02006229 (13.46%)
  Link WS02004404WS02004405 (4.45%)
  Link YS02001745YS02001748 (2.11%)
  Link YS02001793JiankangQianchi (1.40%)
  
  
  ********************************
  Highest Flow Instability Indexes
  ********************************
  Link YS02163301YS02001633 (48)
  Link YS02163601YS02164001 (47)
  Link YS02001629YS02163301 (46)
  Link YS02001619YS02001622 (45)
  Link YS02164001YS02001641 (42)
  
  
  *************************
  Routing Time Step Summary
  *************************
  Minimum Time Step           :     0.50 sec
  Average Time Step           :     1.12 sec
  Maximum Time Step           :     5.00 sec
  Percent in Steady State     :    -0.00
  Average Iterations per Step :     4.44
  Percent Not Converging      :    16.58
  
  
  ***************************
  Subcatchment Runoff Summary
  ***************************
  
  ------------------------------------------------------------------------------------------------------------------------------
                            Total      Total      Total      Total     Imperv       Perv      Total       Total     Peak  Runoff
                           Precip      Runon       Evap      Infil     Runoff     Runoff     Runoff      Runoff   Runoff   Coeff
  Subcatchment                 mm         mm         mm         mm         mm         mm         mm    10^6 ltr      LPS
  ------------------------------------------------------------------------------------------------------------------------------
  sub0                      23.84       0.00       0.00       0.77      22.12       0.90      23.02        0.02     5.06   0.966
  sub1                      23.84       0.00       0.00       1.33      21.12       1.29      22.41        0.15    33.98   0.940
  sub2                      23.84       0.00       0.00       5.60      14.93       3.22      18.15        0.17    32.49   0.761
  sub3                      23.84       0.00       0.00       5.94      14.89       2.88      17.77        0.40    70.76   0.745
  sub4                      23.84       0.00       0.00       1.46      20.95       1.16      22.11        0.46    81.55   0.928
  sub5                      23.84       0.00       0.00       0.82      22.07       0.85      22.92        0.26    59.56   0.962
  sub7                      23.84       0.00       0.00       1.03      21.63       1.11      22.74        0.08    19.22   0.954
  sub8                      23.84       0.00       0.00       1.05      21.62       1.10      22.72        0.15    35.26   0.953
  sub9                      23.84       0.00       0.00       1.05      21.62       1.10      22.71        0.11    26.33   0.953
  sub10                     23.84       0.00       0.00       0.94      21.84       0.97      22.81        0.25    58.74   0.957
  sub11                     23.84       0.00       0.00       0.92      21.86       0.99      22.85        0.27    65.28   0.959
  sub12                     23.84       0.00       0.00       1.50      20.69       1.60      22.29        0.19    51.10   0.935
  sub14                     23.84       0.00       0.00       1.05      21.61       1.09      22.71        0.22    51.81   0.953
  sub15                     23.84       0.00       0.00       4.05      16.62       3.10      19.72        0.34    74.01   0.827
  sub16                     23.84       0.00       0.00       4.23      15.93       3.63      19.56        0.20    48.29   0.821
  sub17                     23.84       0.00       0.00       4.13      16.17       3.50      19.67        0.17    39.49   0.825
  sub22                     23.84       0.00       0.00       6.08      13.55       4.17      17.72        1.12   235.47   0.743
  sub23                     23.84       0.00       0.00       5.01      14.97       3.81      18.78        0.90   197.86   0.788
  sub60                     23.84       0.00       0.00       2.13      18.82       0.73      19.55        5.93   667.30   0.820
  sub61                     23.84       0.00       0.00       3.01      18.52       1.04      19.56        6.03   717.95   0.821
  sub62                     23.84       0.00       0.00       1.25      20.31       0.65      20.96        6.44   751.14   0.880
  sub63                     23.84       0.00       0.00       5.57      16.04       1.34      17.38        5.26   638.31   0.729
  sub64                     23.84       0.00       0.00       2.78      18.11       0.79      18.90        5.75   644.78   0.793
  sub65                     23.84       0.00       0.00       2.36      18.46       0.74      19.20        5.90   658.64   0.806
  sub66                     23.84       0.00       0.00       5.92      15.37       0.99      16.36        5.02   574.80   0.686
  sub67                     23.84       0.00       0.00       1.18      20.92       0.73      21.65        6.68   814.16   0.908
  sub68                     23.84       0.00       0.00       2.35      19.35       0.99      20.34        6.25   750.28   0.853
  sub69                     23.84       0.00       0.00       2.36      19.61       1.21      20.83        4.87   655.18   0.874
  sub70                     23.84      21.26       0.00       9.95      28.09       5.22      33.30        7.62   861.91   0.738
  sub71                     23.84       0.00       0.00       1.29      20.01       0.62      20.63        4.87   557.88   0.866
  sub72                     23.84       0.00       0.00       1.26      17.48       0.41      17.89        3.64   352.81   0.750
  1                         23.84      32.43       0.00       1.37      34.56      12.51      47.07       11.06  1042.57   0.837
  2                         23.84       0.00       0.00       3.02       5.81       5.77      11.58        4.63   438.27   0.486
  
  
  ****************************
  Subcatchment Washoff Summary
  ****************************
  
  ------------------------------------------------------------------------------------------
                                 COD            SS            TN            TP         NH4-N
  Subcatchment                    kg            kg            kg            kg            kg
  ------------------------------------------------------------------------------------------
  sub0                         5.447        10.648         0.101         0.009         0.050
  sub1                        23.688        48.042         0.463         0.033         0.225
  sub2                        16.966        34.031         0.358         0.025         0.167
  sub3                        41.902        83.507         0.867         0.061         0.406
  sub4                        55.504       114.752         1.120         0.071         0.542
  sub5                        53.600       106.723         1.016         0.079         0.498
  sub7                        11.854        24.343         0.233         0.016         0.114
  sub8                        17.650        37.231         0.360         0.022         0.174
  sub9                        15.191        31.538         0.304         0.020         0.147
  sub10                       44.044        88.979         0.851         0.062         0.416
  sub11                       42.563        86.978         0.834         0.059         0.406
  sub12                       37.050        74.157         0.712         0.055         0.347
  sub14                       32.601        66.963         0.643         0.044         0.313
  sub15                       47.434        94.407         0.941         0.071         0.448
  sub16                       30.857        61.246         0.608         0.047         0.290
  sub17                       28.315        55.641         0.547         0.044         0.262
  sub22                      161.087       316.749         3.138         0.242         1.488
  sub23                       88.506       179.789         1.886         0.128         0.879
  sub60                      597.605      1177.766        11.858         0.760         5.721
  sub61                      735.660      1436.196        13.939         0.989         6.759
  sub62                      737.985      1463.009        14.530         0.959         7.028
  sub63                      558.710      1076.727        11.142         0.807         5.242
  sub64                      776.597      1477.973        14.527         1.087         6.999
  sub65                      790.465      1509.997        14.865         1.095         7.170
  sub66                      450.962       868.123         9.087         0.615         4.293
  sub67                     1073.899      2091.719        20.029         1.513         9.761
  sub68                      789.681      1552.112        15.327         1.072         7.390
  sub69                      691.072      1362.692        13.304         0.964         6.425
  sub70                     1288.654      2534.730        26.762         1.929        12.763
  sub71                      488.493       980.368         9.974         0.604         4.804
  sub72                      441.504       833.180         8.283         0.587         4.008
  1                         1052.298      2081.048        22.042         1.588        10.427
  2                          118.381       219.864         3.138         0.193         1.360
  ------------------------------------------------------------------------------------------
  System                   11346.226     22181.229       223.788        15.848       107.320
  
  
  ******************
  Node Depth Summary
  ******************
  
  ---------------------------------------------------------------------------------
                                 Average  Maximum  Maximum  Time of Max    Reported
                                   Depth    Depth      HGL   Occurrence   Max Depth
  Node                 Type       Meters   Meters   Meters  days hr:min      Meters
  ---------------------------------------------------------------------------------
  WS02001211           JUNCTION     0.78     0.86     5.69     0  01:43        0.86
  WS02001212           JUNCTION     0.49     0.59     5.65     0  01:42        0.59
  WS02001213           JUNCTION     0.74     0.87     5.63     0  01:42        0.87
  WS02003069           JUNCTION     0.54     0.73     5.32     0  01:43        0.73
  WS02003072           JUNCTION     0.60     0.78     5.15     0  01:41        0.78
  WS02003073           JUNCTION     0.37     0.49     4.55     0  01:42        0.49
  WS02003060           JUNCTION     0.48     0.65     5.58     0  01:42        0.65
  WS02003066           JUNCTION     0.26     0.40     5.95     0  01:36        0.40
  WS02003059           JUNCTION     0.79     0.92     5.61     0  01:43        0.92
  WS02003067           JUNCTION     0.62     0.84     6.16     0  01:35        0.84
  WS02004401           JUNCTION     0.78     1.48     7.48     0  01:32        1.29
  WS02004402           JUNCTION     0.80     1.43     7.39     0  01:32        1.26
  WS02004403           JUNCTION     0.82     1.39     7.32     0  01:32        1.23
  WS02004404           JUNCTION     0.89     1.41     7.26     0  01:32        1.27
  WS02004406           JUNCTION     0.88     1.26     7.09     0  01:32        1.18
  WS02004409           JUNCTION     0.58     1.04     6.81     0  01:35        1.03
  WS02004410           JUNCTION     0.60     1.01     6.73     0  01:35        0.99
  WS02004411           JUNCTION     0.61     0.97     6.65     0  01:35        0.97
  WS02004412           JUNCTION     0.61     0.94     6.58     0  01:35        0.93
  WS02004413           JUNCTION     0.76     1.05     6.52     0  01:35        1.04
  WS02004405           JUNCTION     0.88     1.37     7.22     0  01:32        1.24
  WS02006109           JUNCTION     0.90     1.91     8.52     0  01:33        1.87
  WS02006110           JUNCTION     0.86     1.79     8.37     0  01:32        1.63
  WS02006111           JUNCTION     0.31     1.29     7.99     0  01:32        1.00
  WS02006112           JUNCTION     0.97     1.91     7.79     0  01:32        1.65
  WS02006113           JUNCTION     0.42     1.43     8.32     0  01:32        1.07
  WS02006115           JUNCTION     0.68     1.54     7.68     0  01:32        1.29
  WS02006116           JUNCTION     0.76     1.55     7.59     0  01:32        1.32
  WS02006230           JUNCTION     0.94     2.13     8.88     0  01:33        2.11
  WS02006231           JUNCTION     0.68     1.74     8.86     0  01:33        1.72
  WS02006232           JUNCTION     0.82     1.81     8.85     0  01:33        1.79
  WS02006234           JUNCTION     0.76     1.68     8.84     0  01:34        1.66
  WS02006235           JUNCTION     0.81     1.67     8.84     0  01:34        1.65
  WS02006238           JUNCTION     0.83     1.69     8.83     0  01:34        1.66
  WS02006240           JUNCTION     0.73     1.50     8.80     0  01:34        1.48
  WS02006242           JUNCTION     0.78     1.50     8.77     0  01:34        1.48
  WS02006243           JUNCTION     0.66     1.33     8.75     0  01:34        1.31
  WS02006245           JUNCTION     0.63     1.24     8.73     0  01:33        1.22
  WS02006247           JUNCTION     0.64     1.21     8.71     0  01:34        1.20
  WS02006248           JUNCTION     0.58     1.10     8.69     0  01:32        1.10
  WS02006249           JUNCTION     0.59     1.09     8.69     0  01:32        1.09
  WS02006239           JUNCTION     0.79     1.60     8.81     0  01:34        1.58
  WS02006251           JUNCTION     0.57     1.48     9.15     0  01:32        1.15
  WS02006252           JUNCTION     0.37     0.95     9.19     0  03:40        0.71
  WS02006253           JUNCTION     0.60     1.95     9.59     0  01:32        1.18
  WS02006256           JUNCTION     1.82     2.35     9.28     0  00:00        2.35
  WS02004138           JUNCTION     0.19     0.20     7.45     0  00:00        0.19
  WS02004139           JUNCTION     0.73     0.80     5.71     0  01:42        0.80
  WS02004407           JUNCTION     0.26     0.42     6.73     0  01:35        0.42
  WS02006228           JUNCTION     0.93     2.11     8.76     0  01:33        2.08
  WS02006229           JUNCTION     0.92     2.20     8.90     0  01:33        2.17
  WS02006280           JUNCTION     0.08     0.51     8.78     0  01:33        0.50
  WS02006284           JUNCTION     0.38     0.72     9.12     0  01:34        0.72
  WS02006287           JUNCTION     0.11     0.46     9.42     0  01:34        0.46
  WSF200               JUNCTION     0.26     0.45     5.69     0  01:36        0.45
  HS02004901           JUNCTION     0.14     0.43    10.25     0  01:33        0.43
  HS02004881           JUNCTION     0.01     0.09     9.12     0  01:32        0.06
  HS02004876           JUNCTION     0.05     0.19     9.22     0  01:32        0.19
  HS02004870           JUNCTION     0.02     0.11     9.40     0  01:35        0.11
  HS02004862           JUNCTION     0.02     0.13     9.51     0  01:35        0.13
  HS02004856           JUNCTION     0.08     0.17     9.59     0  01:35        0.17
  HS02004852           JUNCTION     0.02     0.10     9.61     0  01:35        0.10
  HS02004848           JUNCTION     0.01     0.08     9.68     0  01:36        0.08
  HS02004842           JUNCTION     0.34     0.41     9.68     0  01:35        0.41
  HS02004837           JUNCTION     0.03     0.10     9.68     0  01:35        0.10
  HS02004830           JUNCTION     0.05     0.15     9.62     0  01:35        0.15
  HS02004824           JUNCTION     0.03     0.20     9.61     0  01:35        0.20
  HS02004817           JUNCTION     0.46     0.77     9.62     0  01:34        0.77
  HS02004807           JUNCTION     0.14     0.44     9.61     0  01:35        0.44
  HS02004802           JUNCTION     0.18     0.47     9.60     0  01:34        0.47
  HS02004799           JUNCTION     0.14     0.55     9.76     0  01:33        0.55
  HS02004792           JUNCTION     0.04     0.27     9.79     0  01:33        0.27
  HS02004788           JUNCTION     0.03     0.19    10.09     0  01:34        0.19
  HS02004785           JUNCTION     0.06     0.29    10.19     0  01:33        0.29
  HS02004777           JUNCTION     0.16     0.44    10.24     0  01:33        0.44
  HS02004770           JUNCTION     0.13     0.42    10.25     0  01:33        0.42
  HS02004480           JUNCTION     0.10     0.46     9.70     0  01:33        0.46
  HS02004479           JUNCTION     0.13     0.49     9.70     0  01:34        0.49
  HS02004478           JUNCTION     0.08     0.35     9.58     0  01:34        0.35
  YS02001745           JUNCTION     0.82     1.24     8.76     0  01:29        1.05
  YS02001748           JUNCTION     1.23     1.85     8.93     0  01:28        1.47
  YS02001751           JUNCTION     1.42     1.71     8.59     0  01:29        1.64
  YS02001754           JUNCTION     1.67     1.89     8.50     0  01:29        1.89
  YS02001762           JUNCTION     1.87     2.07     8.47     0  01:29        2.07
  YS02001765           JUNCTION     1.82     2.02     8.47     0  01:29        2.02
  YS02001767           JUNCTION     1.79     1.97     8.46     0  01:29        1.97
  YS02001770           JUNCTION     1.78     1.95     8.44     0  02:06        1.95
  YS02001774           JUNCTION     1.84     2.00     8.42     0  03:19        1.99
  YS02001779           JUNCTION     1.58     1.68     8.37     0  01:27        1.68
  YS02001882           JUNCTION     0.70     1.72     8.44     0  01:32        1.64
  YS02001884           JUNCTION     0.79     1.80     8.42     0  01:32        1.74
  YS02001759           JUNCTION     1.91     2.11     8.48     0  03:01        2.11
  YS02001887           JUNCTION     0.87     1.85     8.38     0  01:32        1.82
  YS02001890           JUNCTION     0.90     1.81     8.32     0  01:32        1.81
  YS02001898           JUNCTION     0.66     1.57     8.31     0  01:33        1.56
  YS02001901           JUNCTION     0.78     1.68     8.29     0  01:33        1.67
  YS02001904           JUNCTION     0.76     1.64     8.27     0  01:33        1.63
  YS02001907           JUNCTION     1.09     1.96     8.25     0  01:33        1.96
  YS02001910           JUNCTION     0.89     1.97     8.48     0  01:33        1.92
  YS02001915           JUNCTION     0.69     1.91     8.63     0  01:33        1.83
  YS02001918           JUNCTION     0.42     1.81     8.88     0  01:33        1.70
  YS02001619           JUNCTION     1.37     1.61     8.54     0  01:27        1.50
  YS02001629           JUNCTION     1.72     1.85     8.40     0  01:27        1.85
  YS02001641           JUNCTION     1.82     1.96     8.40     0  01:29        1.95
  YS02001644           JUNCTION     1.82     1.92     8.35     0  01:29        1.92
  YS02001652           JUNCTION     1.68     2.16     8.76     0  01:35        1.91
  YS02001655           JUNCTION     1.44     2.20     9.05     0  01:35        1.73
  YS02001920           JUNCTION     0.53     2.10     9.11     0  01:33        1.77
  YS02001923           JUNCTION     0.35     2.01     9.27     0  01:33        1.51
  YS02001926           JUNCTION     0.39     1.90     9.35     0  01:33        1.33
  YS02001929           JUNCTION     0.25     1.78     9.47     0  01:33        1.10
  YS02001658           JUNCTION     1.17     2.12     9.26     0  01:35        1.49
  YS02001661           JUNCTION     0.92     2.46     9.86     0  01:35        1.24
  YS02001664           JUNCTION     0.42     0.69     8.62     0  01:30        0.69
  YS02001622           JUNCTION     1.39     1.62     8.52     0  01:27        1.51
  YS02001633           JUNCTION     1.81     1.98     8.43     0  01:29        1.97
  YS02001649           JUNCTION     1.88     2.05     8.44     0  01:29        2.05
  YS02001757           JUNCTION     2.00     2.21     8.47     0  03:01        2.21
  YS02001895           JUNCTION     0.66     1.57     8.31     0  01:34        1.56
  YS02001625           JUNCTION     1.67     1.78     8.38     0  01:27        1.78
  YS02163301           JUNCTION     1.75     1.90     8.42     0  01:29        1.89
  YS02163601           JUNCTION     1.86     2.03     8.43     0  01:29        2.02
  YS02164001           JUNCTION     1.80     1.97     8.42     0  01:29        1.95
  YS02001647           JUNCTION     1.66     1.80     8.41     0  04:55        1.79
  YSB1154              JUNCTION     0.28     0.65     9.70     0  01:34        0.65
  YSB6556              JUNCTION     0.17     0.53     9.70     0  01:33        0.53
  YSB1174              JUNCTION     0.23     0.59     9.70     0  01:33        0.59
  YSB1171              JUNCTION     0.43     0.80     9.70     0  01:34        0.80
  YS02006553           JUNCTION     1.09     1.97     8.26     0  01:53        1.97
  YS02006561           JUNCTION     0.41     1.30     7.96     0  01:32        1.09
  YS02006556           JUNCTION     1.06     1.94     8.25     0  01:44        1.94
  YS02006558           JUNCTION     1.10     2.00     8.26     0  01:32        1.98
  YS02001783           JUNCTION     0.66     1.69     7.83     0  01:32        1.48
  YS02001784           JUNCTION     0.67     1.65     7.72     0  01:32        1.42
  YS02001786           JUNCTION     0.59     1.60     7.63     0  01:32        1.27
  YS02001788           JUNCTION     0.51     1.83     7.81     0  01:32        1.13
  YS02001790           JUNCTION     0.64     1.96     7.60     0  01:31        1.29
  YS02001791           JUNCTION     0.60     1.87     7.34     0  05:05        1.28
  YS02001793           JUNCTION     0.83     2.36     7.19     0  05:04        1.80
  WSC                  OUTFALL      0.37     0.49     1.16     0  01:43        0.49
  JK-storage           STORAGE      3.25     5.80     6.60     0  01:32        5.80
  CC-storage           STORAGE      1.25     1.46     8.46     0  03:01        1.46
  XR-storage           STORAGE      7.31     7.72     5.72     0  01:47        7.72
  
  
  *******************
  Node Inflow Summary
  *******************
  
  -------------------------------------------------------------------------------------------------
                                  Maximum  Maximum                  Lateral       Total        Flow
                                  Lateral    Total  Time of Max      Inflow      Inflow     Balance
                                   Inflow   Inflow   Occurrence      Volume      Volume       Error
  Node                 Type           LPS      LPS  days hr:min    10^6 ltr    10^6 ltr     Percent
  -------------------------------------------------------------------------------------------------
  WS02001211           JUNCTION      7.35   390.11     0  03:15       0.207        10.4       0.402
  WS02001212           JUNCTION      0.00   392.86     0  03:15           0        10.4       0.248
  WS02001213           JUNCTION      0.00   395.24     0  03:15           0        10.4       0.297
  WS02003069           JUNCTION      0.32  1378.22     0  01:43     0.00902        23.3       0.184
  WS02003072           JUNCTION      0.00  1378.45     0  01:43           0        23.2       0.211
  WS02003073           JUNCTION      1.82  1380.19     0  01:44      0.0514        23.2       0.248
  WS02003060           JUNCTION     16.53  1378.39     0  01:42       0.466        23.3       0.171
  WS02003066           JUNCTION      0.00   998.28     0  01:35           0        12.6       0.049
  WS02003059           JUNCTION      0.00   398.04     0  03:14           0        10.3       0.417
  WS02003067           JUNCTION      0.00   994.68     0  01:35           0        12.6       0.093
  WS02004401           JUNCTION      0.00  1016.04     0  01:34           0        12.9       0.210
  WS02004402           JUNCTION      0.00  1015.96     0  01:34           0        12.9       0.194
  WS02004403           JUNCTION      0.00  1016.69     0  01:34           0        12.8       0.171
  WS02004404           JUNCTION      0.16  1017.69     0  01:34     0.00457        12.8       0.123
  WS02004406           JUNCTION      0.00  1018.83     0  01:34           0        12.8       0.299
  WS02004409           JUNCTION      0.00  1016.00     0  01:34           0        12.7       0.189
  WS02004410           JUNCTION      0.00  1006.61     0  01:35           0        12.7       0.206
  WS02004411           JUNCTION      0.00   991.82     0  01:36           0        12.7       0.204
  WS02004412           JUNCTION      0.00   992.37     0  01:36           0        12.7       0.212
  WS02004413           JUNCTION      0.00   993.93     0  01:35           0        12.6       0.300
  WS02004405           JUNCTION      0.04  1018.35     0  01:34     0.00107        12.8       0.185
  WS02006109           JUNCTION      1.23   977.86     0  01:34      0.0347        12.9       0.151
  WS02006110           JUNCTION      0.00   977.86     0  01:34           0        12.8       0.182
  WS02006111           JUNCTION      0.00   977.90     0  01:34           0        12.8       0.047
  WS02006112           JUNCTION     39.49  1016.51     0  01:34       0.169          13       0.247
  WS02006113           JUNCTION      0.00   977.89     0  01:34           0        12.8       0.110
  WS02006115           JUNCTION      0.00  1016.03     0  01:34           0        12.9       0.217
  WS02006116           JUNCTION      0.00  1015.85     0  01:34           0        12.9       0.180
  WS02006230           JUNCTION     10.28   534.29     0  07:20        0.29        8.46       0.233
  WS02006231           JUNCTION      0.00   522.94     0  07:31           0        8.16       0.173
  WS02006232           JUNCTION      0.00   523.58     0  07:20           0        8.15       0.226
  WS02006234           JUNCTION      0.00   523.59     0  07:22           0        8.14       0.143
  WS02006235           JUNCTION      0.00   525.01     0  07:20           0        8.26       0.134
  WS02006238           JUNCTION      0.00   328.63     0  07:21           0         4.7       0.189
  WS02006240           JUNCTION      0.00   328.09     0  07:48           0         4.7       0.358
  WS02006242           JUNCTION      0.00   328.16     0  07:20           0        4.71       0.418
  WS02006243           JUNCTION      0.00   328.12     0  07:44           0        4.71       0.339
  WS02006245           JUNCTION      0.00   328.37     0  07:48           0        4.72       0.305
  WS02006247           JUNCTION      0.00   328.90     0  07:20           0        4.73       0.251
  WS02006248           JUNCTION      0.00   329.21     0  07:20           0        4.78       0.195
  WS02006249           JUNCTION      0.00   470.20     0  03:10           0         5.7       0.288
  WS02006239           JUNCTION      0.00   328.50     0  07:21           0         4.7       0.273
  WS02006251           JUNCTION      0.08   469.39     0  03:10     0.00217        5.73       0.322
  WS02006252           JUNCTION      0.00   400.00     0  03:40           0         4.8       0.014
  WS02006253           JUNCTION      5.06   276.69     0  01:31      0.0186       0.936       1.512
  WS02006256           JUNCTION      0.00   983.00     0  00:00           0        14.3      -0.006
  WS02004138           JUNCTION      0.00   380.00     0  00:00           0        10.3       0.062
  WS02004139           JUNCTION      0.32   396.51     0  00:00     0.00905        10.3       0.454
  WS02004407           JUNCTION      0.00  1019.67     0  01:34           0        12.7       0.083
  WS02006228           JUNCTION      0.00   976.59     0  01:34           0        12.8       0.134
  WS02006229           JUNCTION      0.00  1054.81     0  01:32           0        12.9       0.125
  WS02006280           JUNCTION      0.00   937.56     0  01:34           0        4.56       0.014
  WS02006284           JUNCTION      0.10   934.65     0  01:35      0.0027        4.56       0.018
  WS02006287           JUNCTION      0.00   934.65     0  01:35           0        4.56       0.019
  WSF200               JUNCTION      0.00   999.24     0  01:36           0        12.6       0.054
  HS02004901           JUNCTION     48.29    48.29     0  01:31       0.205       0.205       0.867
  HS02004881           JUNCTION     19.22   196.20     0  01:33      0.0766       0.897       0.079
  HS02004876           JUNCTION     33.98   176.89     0  01:34       0.149       0.821       0.067
  HS02004870           JUNCTION     35.26   143.34     0  01:35       0.145       0.672       0.017
  HS02004862           JUNCTION     32.69   109.55     0  01:35       0.175       0.527       0.033
  HS02004856           JUNCTION     26.33    76.92     0  01:35       0.109       0.354       0.407
  HS02004852           JUNCTION      0.00    51.63     0  01:36           0       0.245       0.025
  HS02004848           JUNCTION     70.76    70.76     0  01:38         0.4         0.4       0.013
  HS02004842           JUNCTION      0.00    21.86     0  01:49           0       0.168       8.372
  HS02004837           JUNCTION     65.09    82.02     0  01:35       0.431       0.586       0.139
  HS02004830           JUNCTION      0.15    82.12     0  01:35     0.00423       0.576       0.215
  HS02004824           JUNCTION     81.60   164.06     0  01:39       0.463        1.04       0.052
  HS02004817           JUNCTION      0.60   166.62     0  01:39      0.0169        1.05       1.606
  HS02004807           JUNCTION     65.28   225.51     0  01:36       0.265         1.3       0.343
  HS02004802           JUNCTION      0.00   226.45     0  01:37           0         1.3       0.298
  HS02004799           JUNCTION     51.81   605.47     0  01:33       0.216        2.82       0.117
  HS02004792           JUNCTION    235.75   554.35     0  01:33        1.13        2.61       0.015
  HS02004788           JUNCTION     75.68   319.93     0  01:33       0.386        1.48       0.026
  HS02004785           JUNCTION      0.15   244.47     0  01:33     0.00423         1.1       0.047
  HS02004777           JUNCTION      0.03   244.66     0  01:32    0.000846         1.1       0.479
  HS02004770           JUNCTION    197.86   245.55     0  01:32       0.896         1.1       0.279
  HS02004480           JUNCTION      0.00   713.05     0  01:33           0        3.27       0.023
  HS02004479           JUNCTION      0.00   107.71     0  01:33           0       0.464       0.161
  HS02004478           JUNCTION      0.00   934.58     0  01:35           0        4.56       0.007
  YS02001745           JUNCTION    667.30   667.30     0  03:01        5.93        5.93       0.175
  YS02001748           JUNCTION      0.04   667.54     0  03:01     0.00127        5.92       0.379
  YS02001751           JUNCTION      0.01   667.83     0  03:01     0.00031         5.9       0.409
  YS02001754           JUNCTION      0.26   668.71     0  03:01     0.00733        5.89       0.412
  YS02001762           JUNCTION      0.00   370.23     0  01:35           0        3.09       0.688
  YS02001765           JUNCTION      0.00   369.96     0  01:35           0        3.08       0.795
  YS02001767           JUNCTION      0.54   369.89     0  01:35      0.0151        3.11       1.159
  YS02001770           JUNCTION    751.30  1107.76     0  03:01        6.45        8.22       0.380
  YS02001774           JUNCTION      0.00   851.17     0  02:33           0        6.47       0.389
  YS02001779           JUNCTION      0.01   851.17     0  02:45    0.000141        6.45       0.240
  YS02001882           JUNCTION      0.00    35.86     0  01:30           0      0.0699       4.357
  YS02001884           JUNCTION      0.00    62.42     0  01:29           0       0.116       6.115
  YS02001759           JUNCTION    717.99   898.67     0  01:41        6.03        7.32       0.310
  YS02001887           JUNCTION    814.61   815.54     0  01:58        6.69        6.73       0.132
  YS02001890           JUNCTION      0.00   815.85     0  01:57           0        6.68       0.154
  YS02001898           JUNCTION      0.00   598.44     0  01:32           0        5.41       0.047
  YS02001901           JUNCTION      0.00   603.23     0  01:32           0        5.41       0.164
  YS02001904           JUNCTION      0.00   604.49     0  01:32           0         5.4       0.130
  YS02001907           JUNCTION      0.00  1427.96     0  03:01           0          14       0.179
  YS02001910           JUNCTION      0.00   911.28     0  03:01           0         8.6       0.141
  YS02001915           JUNCTION    557.90   911.10     0  03:01        4.87        8.65       0.087
  YS02001918           JUNCTION      0.00   432.44     0  01:32           0        3.81       0.067
  YS02001619           JUNCTION    574.80   574.80     0  03:01        5.02        5.02       0.239
  YS02001629           JUNCTION      0.00   279.76     0  01:26           0        2.09       1.363
  YS02001641           JUNCTION      0.00   456.22     0  01:28           0        6.14       0.342
  YS02001644           JUNCTION    644.82  1924.41     0  03:01        5.75        19.3       0.137
  YS02001652           JUNCTION      0.00   639.59     0  03:01           0        5.22       0.431
  YS02001655           JUNCTION      0.15   639.40     0  03:01     0.00434        5.25       0.484
  YS02001920           JUNCTION      2.87   402.24     0  01:33      0.0809        3.79       0.093
  YS02001923           JUNCTION      0.04   401.24     0  01:33     0.00106        3.69       0.045
  YS02001926           JUNCTION      0.05   463.69     0  01:33     0.00147        3.66       0.086
  YS02001929           JUNCTION    352.81   352.81     0  03:01        3.64        3.65       0.004
  YS02001658           JUNCTION      0.00   638.98     0  03:01           0        5.26       0.454
  YS02001661           JUNCTION      0.00   800.06     0  01:41           0        5.84      -0.093
  YS02001664           JUNCTION    638.31   638.31     0  03:01        5.26        5.85       0.087
  YS02001622           JUNCTION      0.00   574.86     0  03:01           0        5.01       0.632
  YS02001633           JUNCTION    658.84   658.84     0  03:01        5.91        7.07       0.450
  YS02001649           JUNCTION      0.00  1437.77     0  03:01           0        10.6       0.346
  YS02001757           JUNCTION      0.00  2182.20     0  01:41           0        13.1       0.705
  YS02001895           JUNCTION      0.00   594.51     0  01:32           0        5.39       0.130
  YS02001625           JUNCTION      0.00   801.48     0  03:01           0        5.86       0.682
  YS02163301           JUNCTION      0.00   279.14     0  01:26           0        2.09       1.164
  YS02163601           JUNCTION      0.11   454.30     0  01:28      0.0031        6.14       0.487
  YS02164001           JUNCTION      0.00   454.53     0  01:28           0        6.13       0.326
  YS02001647           JUNCTION      0.00   846.70     0  02:29           0        8.25       0.343
  YSB1154              JUNCTION     59.56    59.56     0  01:33        0.26        0.26       0.556
  YSB6556              JUNCTION      0.00    59.44     0  01:33           0       0.261       0.489
  YSB1174              JUNCTION     51.10    51.10     0  01:30       0.195       0.195       0.658
  YSB1171              JUNCTION      0.00   108.28     0  01:32           0       0.462       1.395
  YS02006553           JUNCTION      0.00   731.09     0  04:01           0        7.58       0.211
  YS02006561           JUNCTION      0.00  1060.99     0  01:32           0        13.8       0.007
  YS02006556           JUNCTION      0.00   731.26     0  04:01           0        7.59       0.156
  YS02006558           JUNCTION    751.16  1059.69     0  01:32        6.28        13.8       0.039
  YS02001783           JUNCTION      0.00  1023.67     0  01:31           0        13.8       0.022
  YS02001784           JUNCTION      1.06  1024.80     0  01:31      0.0299        13.8       0.030
  YS02001786           JUNCTION      0.06  1024.64     0  01:31     0.00159        13.8       0.029
  YS02001788           JUNCTION      0.07  1003.97     0  01:31       0.002        13.8       0.019
  YS02001790           JUNCTION      0.15   984.12     0  01:50     0.00437        13.8       0.017
  YS02001791           JUNCTION      0.00   984.09     0  01:58           0        13.8       0.010
  YS02001793           JUNCTION      0.00   984.35     0  01:52           0        13.8      -0.020
  WSC                  OUTFALL       0.00  1380.77     0  01:43           0        23.2       0.000
  JK-storage           STORAGE       0.00  1020.29     0  01:30           0          14      -6.873
  CC-storage           STORAGE       0.00  2182.61     0  01:41           0         8.3       0.746
  XR-storage           STORAGE    1680.85  1680.85     0  03:01        21.3        21.9       0.002
  
  
  **********************
  Node Surcharge Summary
  **********************
  
  Surcharging occurs when water rises above the top of the highest conduit.
  ---------------------------------------------------------------------
                                               Max. Height   Min. Depth
                                   Hours       Above Crown    Below Rim
  Node                 Type      Surcharged         Meters       Meters
  ---------------------------------------------------------------------
  WS02004401           JUNCTION        1.83          0.484        1.176
  WS02004402           JUNCTION        1.86          0.434        1.306
  WS02004403           JUNCTION        1.87          0.386        1.644
  WS02004404           JUNCTION        1.95          0.408        2.372
  WS02004406           JUNCTION        1.91          0.256        2.194
  WS02004409           JUNCTION        0.13          0.043        2.317
  WS02004410           JUNCTION        0.01          0.008        2.532
  WS02004413           JUNCTION        0.89          0.048        2.152
  WS02004405           JUNCTION        1.93          0.365        2.435
  WS02006109           JUNCTION        5.08          1.086        0.734
  WS02006110           JUNCTION        3.04          0.878        0.972
  WS02006111           JUNCTION        0.65          0.476        1.394
  WS02006112           JUNCTION        3.18          0.911        0.769
  WS02006113           JUNCTION        0.72          0.628        1.302
  WS02006115           JUNCTION        1.72          0.533        1.717
  WS02006116           JUNCTION        1.74          0.486        1.804
  WS02006230           JUNCTION        2.91          1.052        0.518
  WS02006231           JUNCTION        3.06          1.030        0.500
  WS02006232           JUNCTION        5.08          1.108        0.372
  WS02006234           JUNCTION        4.73          0.962        0.278
  WS02006235           JUNCTION        4.97          0.963        0.327
  WS02006238           JUNCTION        5.00          0.969        0.461
  WS02006240           JUNCTION        4.51          0.793        0.597
  WS02006242           JUNCTION        4.64          0.770        0.050
  WS02006243           JUNCTION        3.10          0.617        0.153
  WS02006245           JUNCTION        2.99          0.532        0.318
  WS02006247           JUNCTION        2.99          0.504        0.256
  WS02006248           JUNCTION        2.90          0.380        0.000
  WS02006249           JUNCTION        2.91          0.390        0.000
  WS02006239           JUNCTION        4.72          0.864        0.426
  WS02006251           JUNCTION        2.56          0.449        0.731
  WS02006252           JUNCTION        2.96          0.547        0.553
  WS02006253           JUNCTION        2.68          0.907        1.573
  WS02006256           JUNCTION        6.89          2.050        0.000
  WS02006228           JUNCTION        5.06          1.278        0.922
  WS02006229           JUNCTION        0.01          0.022        1.048
  HS02004817           JUNCTION        0.46          0.068        1.672
  YS02001745           JUNCTION        0.94          0.240        1.110
  YS02001748           JUNCTION        6.35          0.773        0.417
  YS02001751           JUNCTION        6.36          0.714        0.486
  YS02001754           JUNCTION        6.38          0.844        0.306
  YS02001762           JUNCTION        6.40          1.074        0.076
  YS02001765           JUNCTION        6.40          1.024        0.076
  YS02001767           JUNCTION        6.39          0.973        0.057
  YS02001770           JUNCTION        6.39          0.920        0.000
  YS02001774           JUNCTION        6.40          0.998        0.052
  YS02001779           JUNCTION        6.37          0.680        0.000
  YS02001882           JUNCTION        2.54          0.721        0.109
  YS02001884           JUNCTION        2.55          0.743        0.127
  YS02001759           JUNCTION        6.41          1.114        0.096
  YS02001887           JUNCTION        2.62          0.795        0.155
  YS02001890           JUNCTION        2.64          0.760        0.000
  YS02001898           JUNCTION        2.51          0.541        0.199
  YS02001901           JUNCTION        2.59          0.683        0.187
  YS02001904           JUNCTION        2.57          0.645        0.205
  YS02001907           JUNCTION        3.10          0.950        0.000
  YS02001910           JUNCTION        2.67          0.970        0.130
  YS02001915           JUNCTION        2.54          0.914        0.086
  YS02001918           JUNCTION        2.40          0.810        0.000
  YS02001619           JUNCTION        6.37          0.610        0.000
  YS02001629           JUNCTION        6.37          0.470        0.000
  YS02001641           JUNCTION        6.40          0.962        0.138
  YS02001644           JUNCTION        6.40          0.920        0.000
  YS02001652           JUNCTION        6.38          1.130        0.000
  YS02001655           JUNCTION        6.37          1.200        0.000
  YS02001920           JUNCTION        2.42          1.103        0.037
  YS02001923           JUNCTION        0.01          0.800        0.020
  YS02001926           JUNCTION        0.01          0.900        0.000
  YS02001929           JUNCTION        0.01          0.780        0.000
  YS02001658           JUNCTION        6.35          1.116        0.184
  YS02001661           JUNCTION        1.54          1.390        0.000
  YS02001622           JUNCTION        6.37          0.620        0.000
  YS02001633           JUNCTION        6.40          0.960        0.100
  YS02001649           JUNCTION        6.40          1.050        0.000
  YS02001757           JUNCTION        6.42          1.210        0.000
  YS02001895           JUNCTION        2.53          0.567        0.183
  YS02001625           JUNCTION        6.38          0.780        0.000
  YS02163301           JUNCTION        6.39          0.901        0.129
  YS02163601           JUNCTION        6.40          1.035        0.045
  YS02164001           JUNCTION        6.40          0.965        0.135
  YS02001647           JUNCTION        6.38          0.799        0.101
  YS02006553           JUNCTION        3.17          0.973        0.217
  YS02006561           JUNCTION        2.42          0.499        0.651
  YS02006556           JUNCTION        2.84          0.902        0.448
  YS02006558           JUNCTION        2.81          0.896        0.504
  YS02001783           JUNCTION        2.63          0.886        0.714
  YS02001784           JUNCTION        2.60          0.854        0.636
  YS02001786           JUNCTION        2.52          0.801        0.629
  YS02001788           JUNCTION        2.47          1.030        0.450
  YS02001790           JUNCTION        3.25          1.157        0.000
  YS02001791           JUNCTION        3.34          1.072        0.848
  YS02001793           JUNCTION        3.59          1.360        1.240
  
  
  *********************
  Node Flooding Summary
  *********************
  
  Flooding refers to all water that overflows a node, whether it ponds or not.
  --------------------------------------------------------------------------
                                                             Total   Maximum
                                 Maximum   Time of Max       Flood    Ponded
                        Hours       Rate    Occurrence      Volume     Depth
  Node                 Flooded       LPS   days hr:min    10^6 ltr    Meters
  --------------------------------------------------------------------------
  WS02006248              0.43    151.85      0  01:38       0.139     0.000
  WS02006249              2.66    356.57      0  01:32       1.009     0.000
  WS02006256              4.89    978.40      0  00:00      10.657     0.000
  YS02001770              1.09    256.53      0  03:01       0.388     0.000
  YS02001779              4.41    851.17      0  02:45       6.428     0.000
  YS02001890              1.75    298.72      0  01:56       1.275     0.000
  YS02001907              2.27   1197.49      0  03:01       6.358     0.000
  YS02001918              0.01     89.36      0  01:33       0.001     0.000
  YS02001619              0.01    104.17      0  01:27       0.000     0.000
  YS02001629              0.01    240.31      0  01:27       0.002     0.000
  YS02001644              5.84   1924.36      0  03:01      18.421     0.000
  YS02001652              0.01      5.78      0  01:35       0.000     0.000
  YS02001655              0.01     12.84      0  01:35       0.000     0.000
  YS02001926              0.01     22.18      0  01:33       0.000     0.000
  YS02001929              0.01    244.70      0  01:33       0.001     0.000
  YS02001661              0.01    114.41      0  01:35       0.000     0.000
  YS02001622              0.01     85.79      0  01:27       0.000     0.000
  YS02001649              1.26    591.06      0  03:01       1.469     0.000
  YS02001625              3.00    801.47      0  03:01       4.633     0.000
  YS02001790              0.01    150.99      0  01:31       0.000     0.000
  JK-storage              0.67    695.53      0  01:32       0.653     0.000
  XR-storage              6.03   1300.69      0  03:01      10.739     0.000
  
  
  **********************
  Storage Volume Summary
  **********************
  
  --------------------------------------------------------------------------------------------------
                         Average     Avg  Evap Exfil       Maximum     Max    Time of Max    Maximum
                          Volume    Pcnt  Pcnt  Pcnt        Volume    Pcnt     Occurrence    Outflow
  Storage Unit           1000 m3    Full  Loss  Loss       1000 m3    Full    days hr:min        LPS
  --------------------------------------------------------------------------------------------------
  JK-storage               0.163      56     0     0         0.291     100       0  01:32     983.00
  CC-storage               3.489      22     0     0         4.076      26       0  03:01     400.00
  XR-storage               0.877      95     0     0         0.926     100       0  01:47     380.00
  
  
  ***********************
  Outfall Loading Summary
  ***********************
  
  ---------------------------------------------------------------------------------------------------------------------------------
                         Flow       Avg       Max       Total         Total         Total         Total         Total         Total
                         Freq      Flow      Flow      Volume           COD            SS            TN            TP         NH4-N
  Outfall Node           Pcnt       LPS       LPS    10^6 ltr            kg            kg            kg            kg            kg
  ---------------------------------------------------------------------------------------------------------------------------------
  WSC                   99.98    844.06   1380.77      23.189      2887.340      5306.578       135.329        14.881        79.024
  ---------------------------------------------------------------------------------------------------------------------------------
  System                99.98    844.06   1380.77      23.189      2887.340      5306.578       135.329        14.881        79.024
  
  
  ********************
  Link Flow Summary
  ********************
  
  -----------------------------------------------------------------------------
                                 Maximum  Time of Max   Maximum    Max/    Max/
                                  |Flow|   Occurrence   |Veloc|    Full    Full
  Link                 Type          LPS  days hr:min     m/sec    Flow   Depth
  -----------------------------------------------------------------------------
  WS02003066WSF200     CONDUIT    999.24     0  01:36      3.05    0.17    0.33
  WS02006287WS02006284 CONDUIT    934.56     0  01:35      2.63    0.43    0.46
  WS02006284WS02006280 CONDUIT    937.56     0  01:34      2.86    0.39    0.44
  WS02006280WS02006229 CONDUIT    963.19     0  01:34      4.53    0.21    0.75
  WS02006229WS02006228 CONDUIT    976.59     0  01:34      1.94    3.23    1.00
  WS02006256WS02006235 CONDUIT    288.60     0  00:00      4.23    3.05    1.00
  WS02006253WS02006251 CONDUIT    273.97     0  01:32      0.83    0.82    1.00
  WS02006252WS02006251 CONDUIT    406.88     0  03:40      3.24    1.49    1.00
  WS02006251WS02006249 CONDUIT    470.20     0  03:10      1.22    1.36    1.00
  WS02006249WS02006248 CONDUIT    329.21     0  07:20      1.06    1.80    1.00
  WS02006248WS02006247 CONDUIT    328.90     0  07:20      1.02    0.72    1.00
  WS02006247WS02006245 CONDUIT    328.37     0  07:48      0.97    2.60    1.00
  WS02006245WS02006243 CONDUIT    328.12     0  07:44      1.05    0.97    1.00
  WS02006243WS02006242 CONDUIT    328.16     0  07:20      0.90    0.70    1.00
  WS02006242WS02006240 CONDUIT    328.09     0  07:48      0.90    1.30    1.00
  WS02006240WS02006239 CONDUIT    328.50     0  07:21      0.87    1.03    1.00
  WS02006239WS02006238 CONDUIT    328.63     0  07:21      0.88    1.05    1.00
  WS02006238WS02006235 CONDUIT    329.84     0  07:22      1.46    0.74    1.00
  WS02006235WS02006234 CONDUIT    523.59     0  07:22      1.36    5.52    1.00
  WS02006234WS02006232 CONDUIT    523.58     0  07:20      1.39    1.06    1.00
  WS02006232WS02006231 CONDUIT    522.94     0  07:31      1.36    1.10    1.00
  WS02006231WS02006230 CONDUIT    524.01     0  07:20      1.36    7.95    1.00
  WS02006230WS02006229 CONDUIT    534.10     0  07:20      1.39   11.89    1.00
  WS02006228WS02006109 CONDUIT    976.63     0  01:34      1.94    4.27    1.00
  WS02006116WS02004401 CONDUIT   1016.04     0  01:34      1.29    1.40    1.00
  WS02006115WS02006116 CONDUIT   1015.85     0  01:34      1.29    1.30    1.00
  WS02006113WS02006111 CONDUIT    977.90     0  01:34      2.65    1.17    1.00
  WS02006112WS02006115 CONDUIT   1016.03     0  01:34      1.29    0.60    1.00
  WS02006111WS02006112 CONDUIT    977.90     0  01:34      1.95    0.46    1.00
  WS02006110WS02006113 CONDUIT    977.89     0  01:34      1.95    0.89    1.00
  WS02006109WS02006110 CONDUIT    977.86     0  01:34      1.95    1.88    1.00
  WS02004411WS02004412 CONDUIT    992.37     0  01:36      1.29    1.41    0.96
  WS02004401WS02004402 CONDUIT   1015.96     0  01:34      1.29    1.22    1.00
  WS02004413WS02003067 CONDUIT    994.68     0  01:35      1.62    0.43    0.73
  WS02004412WS02004413 CONDUIT    993.93     0  01:35      1.28    0.67    0.97
  WS02004410WS02004411 CONDUIT    991.82     0  01:36      1.27    1.35    0.99
  WS02004409WS02004410 CONDUIT   1006.61     0  01:35      1.29    1.30    1.00
  WS02004407WS02004409 CONDUIT   1016.00     0  01:34      1.87    0.36    0.71
  WS02004406WS02004407 CONDUIT   1019.67     0  01:34      1.72    0.46    0.71
  WS02004405WS02004406 CONDUIT   1018.83     0  01:34      1.30    2.01    1.00
  WS02004404WS02004405 CONDUIT   1018.32     0  01:34      1.30    9.98    1.00
  WS02004403WS02004404 CONDUIT   1017.53     0  01:34      1.30    0.74    1.00
  WS02004402WS02004403 CONDUIT   1016.69     0  01:34      1.29    1.46    1.00
  WS02004139WS02001211 CONDUIT    382.76     0  03:15      0.90    0.48    0.65
  WS02004138WS02004139 CONDUIT    396.19     0  00:00      3.65    0.08    0.47
  WS02003067WS02003066 CONDUIT    998.28     0  01:35      1.71    0.32    0.51
  WS02001213WS02003059 CONDUIT    398.04     0  03:14      0.88    0.66    0.88
  WS02001212WS02001213 CONDUIT    395.24     0  03:15      1.32    0.61    0.57
  WS02001211WS02001212 CONDUIT    392.86     0  03:15      0.78    0.30    0.72
  WS02003072WS02003073 CONDUIT   1378.37     0  01:44      1.99    2.98    0.59
  WS02003069WS02003072 CONDUIT   1378.45     0  01:43      1.84    0.66    0.63
  WS02003060WS02003069 CONDUIT   1377.90     0  01:43      2.04    0.54    0.58
  WS02003059WS02003060 CONDUIT    401.68     0  03:29      0.95    0.26    0.79
  HS02004901HS02004770 CONDUIT     47.75     0  01:32      0.11    0.18    0.61
  HS02004876HS02004881 CONDUIT    177.42     0  01:33      1.41    1.89    0.20
  HS02004870HS02004876 CONDUIT    143.30     0  01:35      0.95    0.10    0.22
  HS02004842HS02004848 CONDUIT     21.86     0  01:49      0.09    0.01    0.35
  HS02004837HS02004842 CONDUIT     22.38     0  01:49      0.42    0.01    0.37
  HS02004830HS02004837 CONDUIT     81.97     0  01:35      0.70    0.08    0.18
  HS02004824HS02004830 CONDUIT     82.88     0  01:37      0.63    0.11    0.25
  HS02004817HS02004824 CONDUIT    166.02     0  01:39      0.37    0.07    0.64
  HS02004770HS02004777 CONDUIT    244.63     0  01:32      0.57    0.45    0.62
  HS02004799HS02004480 CONDUIT    605.42     0  01:33      1.21    0.76    0.71
  HS02004792HS02004799 CONDUIT    554.25     0  01:33      1.36    0.34    0.58
  HS02004788HS02004792 CONDUIT    319.85     0  01:34      1.40    0.21    0.33
  HS02004785HS02004788 CONDUIT    244.45     0  01:33      1.02    1.84    0.34
  HS02004777HS02004785 CONDUIT    244.32     0  01:33      0.67    0.30    0.52
  HS02004480HS02004478 CONDUIT    712.97     0  01:33      1.74    3.00    0.59
  HS02004479HS02004480 CONDUIT    107.66     0  01:33      0.45    0.10    0.68
  HS02004862HS02004870 CONDUIT    109.56     0  01:36      0.90    0.12    0.17
  HS02004848HS02004852 CONDUIT     51.63     0  01:36      0.58    0.06    0.13
  HS02004856HS02004862 CONDUIT     76.86     0  01:35      0.67    0.08    0.16
  HS02004852HS02004856 CONDUIT     51.73     0  01:36      0.39    0.06    0.19
  HS02004802HS02004478 CONDUIT    227.65     0  01:38      0.57    0.20    0.58
  HS02004478WS02006287 CONDUIT    934.65     0  01:35      2.37    0.26    0.44
  HS02004817HS02004807 CONDUIT    166.70     0  01:39      0.30    0.10    0.81
  HS02004807HS02004802 CONDUIT    226.45     0  01:37      0.51    0.43    0.64
  YS02001759YS02001757 CONDUIT    898.89     0  01:41      1.14    0.64    1.00
  YS02001762YS02001759 CONDUIT    370.56     0  01:35      0.47    0.43    1.00
  YS02001765YS02001762 CONDUIT    370.23     0  01:35      0.47    0.35    1.00
  YS02001770YS02001767 CONDUIT    369.35     0  01:35      0.50    1.46    1.00
  YS02001774YS02001770 CONDUIT    851.17     0  02:33      1.08    0.54    1.00
  YS02001779YS02001774 CONDUIT    851.17     0  02:45      1.08    0.43    1.00
  YS02001649YS02001757 CONDUIT    891.01     0  01:40      1.13    0.54    1.00
  YS02001767YS02001765 CONDUIT    369.96     0  01:35      0.48    0.47    1.00
  YS02006561YS02001783 CONDUIT   1023.67     0  01:31      2.27    0.53    1.00
  YS02001783YS02001784 CONDUIT   1023.74     0  01:31      2.04    1.41    1.00
  YS02001784YS02001785 CONDUIT   1024.58     0  01:31      2.07    2.38    1.00
  YS02001788YS02001790 CONDUIT    983.97     0  01:50      2.45    0.73    1.00
  YS02001790YS02001791 CONDUIT    984.09     0  01:58      2.98    1.07    1.00
  YS02001791YS02001793 CONDUIT    984.35     0  01:52      5.81    0.42    1.00
  YS02001910YS02001907 CONDUIT    911.57     0  03:01      1.16    0.51    1.00
  YS02001786YS02001788 CONDUIT   1003.90     0  01:31      2.31    1.93    1.00
  YS02001915YS02001910 CONDUIT    911.28     0  03:01      1.16    0.45    1.00
  YS02001918YS02001915 CONDUIT    432.44     0  01:32      0.58    0.24    1.00
  YS02001923YS02001920 CONDUIT    401.21     0  01:33      0.92    0.18    1.00
  YS02001926YS02001923 CONDUIT    463.64     0  01:33      1.01    0.66    1.00
  YS02001929YS02001926 CONDUIT    352.43     0  03:01      1.07    0.17    1.00
  YS02001920YS02001918 CONDUIT    401.55     0  01:34      0.86    0.39    1.00
  YS02001629YS02163301 CONDUIT    279.76     0  01:26      0.36    0.34    1.00
  YS02001619YS02001622 CONDUIT    574.86     0  03:01      0.86    0.85    1.00
  YS02001622YS02001625 CONDUIT    575.15     0  03:01      0.73    0.31    1.00
  YS02001625YS02001629 CONDUIT    260.10     0  01:26      0.40    0.12    1.00
  YS02163301YS02001633 CONDUIT    279.14     0  01:26      0.36    0.26    1.00
  YS02163601YS02164001 CONDUIT    454.53     0  01:28      0.58    0.40    1.00
  YS02164001YS02001641 CONDUIT    456.22     0  01:28      0.58    0.62    1.00
  YS02001641YS02001644 CONDUIT    457.69     0  01:28      0.58    1.48    1.00
  YS02001647YS02001649 CONDUIT    846.70     0  02:29      1.08    0.45    1.00
  YS02006553YS02006556 CONDUIT    731.26     0  04:01      0.93    0.63    1.00
  YS02006556YS02006558 CONDUIT    731.91     0  04:02      0.93    0.58    1.00
  YSB6556YSB1171       CONDUIT     59.53     0  01:34      0.17    0.06    0.88
  YS02001907YS02006553 CONDUIT    731.09     0  04:01      0.81    0.86    1.00
  YS02006558YS02006561 CONDUIT   1060.99     0  01:32      3.76    2.35    1.00
  YS02001633YS02163601 CONDUIT    454.19     0  01:28      0.58    0.48    1.00
  YS02001644YS02001647 CONDUIT    846.70     0  02:29      1.08    0.50    1.00
  YS02001745YS02001748 CONDUIT    667.49     0  03:01      1.86    0.26    1.00
  YS02001748YS02001751 CONDUIT    667.82     0  03:01      1.39    0.34    1.00
  YS02001751YS02001754 CONDUIT    668.45     0  03:01      1.15    0.32    1.00
  YS02001754YS02001757 CONDUIT    669.15     0  03:01      0.85    0.27    1.00
  YS02001882YS02001884 CONDUIT     35.86     0  01:30      0.22    0.04    1.00
  YS02001884YS02001887 CONDUIT     62.42     0  01:29      0.16    0.08    1.00
  YS02001890YS02001895 CONDUIT    594.51     0  01:32      0.76    0.28    1.00
  YS02001895YS02001898 CONDUIT    598.44     0  01:32      0.76    1.04    1.00
  YS02001898YS02001901 CONDUIT    603.23     0  01:32      0.77    0.39    1.00
  YS02001901YS02001904 CONDUIT    604.49     0  01:32      0.77    0.94    1.00
  YS02001904YS02001907 CONDUIT    605.14     0  01:32      0.77    0.21    1.00
  YS02001887YS02001890 CONDUIT    815.85     0  01:57      1.04    1.40    1.00
  YS02001652YS02001649 CONDUIT    639.70     0  03:01      0.84    0.32    1.00
  YS02001655YS02001652 CONDUIT    639.59     0  03:01      1.25    0.31    1.00
  YS02001658YS02001655 CONDUIT    639.24     0  03:01      1.61    0.27    1.00
  YS02001661YS02001658 CONDUIT    638.98     0  03:01      1.99    0.25    1.00
  YS02001664YS02001661 CONDUIT    800.06     0  01:41      1.90    0.25    0.85
  YSB1154YSB6556       CONDUIT     59.44     0  01:33      0.17    0.11    0.84
  YSB1174YSB1171       CONDUIT     50.32     0  01:30      0.14    0.08    0.92
  YSB1171HS02004479    CONDUIT    107.71     0  01:33      0.54    0.07    0.78
  HS02004881HS02006253 CONDUIT    270.49     0  01:32      2.77    0.05    0.56
  YS02001793JiankangQianchi CONDUIT   1020.29     0  01:30     16.57    0.08    1.00
  YS02001757CaochengTiaoxuchi CONDUIT   2182.61     0  01:41      3.80    0.96    1.00
  WSF200WS02003060     CONDUIT   1003.32     0  01:36      2.06    0.22    0.46
  1                    CONDUIT   1380.77     0  01:43      3.62    0.48    0.49
  CC-Pump-1            PUMP       200.00     0  02:10              1.00
  CC-Pump-2            PUMP       200.00     0  03:40              1.00
  JK-Pump-1            PUMP       300.00     0  00:00              1.00
  JK-Pump-2            PUMP       683.00     0  00:00              1.00
  XR-Pump-1            PUMP        95.00     0  00:00              1.00
  XR-Pump-2            PUMP        95.00     0  00:00              1.00
  XR-Pump-3            PUMP        95.00     0  00:00              1.00
  XR-Pump-4            PUMP        95.00     0  00:00              1.00
  
  
  ***************************
  Flow Classification Summary
  ***************************
  
  -------------------------------------------------------------------------------------
                      Adjusted    ---------- Fraction of Time in Flow Class ---------- 
                       /Actual         Up    Down  Sub   Sup   Up    Down  Norm  Inlet 
  Conduit               Length    Dry  Dry   Dry   Crit  Crit  Crit  Crit  Ltd   Ctrl  
  -------------------------------------------------------------------------------------
  WS02003066WSF200        1.00   0.02  0.04  0.00  0.00  0.94  0.00  0.00  0.40  0.00
  WS02006287WS02006284    1.00   0.03  0.01  0.00  0.68  0.28  0.00  0.00  0.61  0.00
  WS02006284WS02006280    1.00   0.03  0.00  0.00  0.00  0.00  0.00  0.97  0.00  0.00
  WS02006280WS02006229    1.00   0.03  0.00  0.00  0.05  0.09  0.00  0.83  0.05  0.00
  WS02006229WS02006228    1.00   0.00  0.00  0.00  1.00  0.00  0.00  0.00  0.00  0.00
  WS02006256WS02006235    1.00   0.00  0.00  0.00  1.00  0.00  0.00  0.00  0.00  0.00
  WS02006253WS02006251    1.00   0.01  0.01  0.00  0.97  0.00  0.01  0.00  0.00  0.00
  WS02006252WS02006251    1.00   0.07  0.00  0.00  0.21  0.00  0.72  0.00  0.00  0.00
  WS02006251WS02006249    1.00   0.00  0.00  0.00  1.00  0.00  0.00  0.00  0.13  0.00
  WS02006249WS02006248    1.00   0.00  0.01  0.00  0.95  0.00  0.04  0.00  0.00  0.00
  WS02006248WS02006247    1.00   0.01  0.00  0.00  0.98  0.00  0.00  0.01  0.02  0.00
  WS02006247WS02006245    1.00   0.01  0.00  0.00  0.97  0.00  0.00  0.03  0.00  0.00
  WS02006245WS02006243    1.00   0.00  0.00  0.00  0.96  0.00  0.00  0.04  0.01  0.00
  WS02006243WS02006242    1.00   0.00  0.00  0.00  0.99  0.00  0.00  0.00  0.16  0.00
  WS02006242WS02006240    1.00   0.00  0.00  0.00  0.99  0.00  0.01  0.00  0.00  0.00
  WS02006240WS02006239    1.00   0.00  0.00  0.00  0.96  0.00  0.00  0.04  0.01  0.00
  WS02006239WS02006238    1.00   0.00  0.00  0.00  1.00  0.00  0.00  0.00  0.11  0.00
  WS02006238WS02006235    1.00   0.00  0.00  0.00  1.00  0.00  0.00  0.00  0.00  0.00
  WS02006235WS02006234    1.00   0.00  0.00  0.00  0.98  0.00  0.02  0.00  0.00  0.00
  WS02006234WS02006232    1.00   0.00  0.00  0.00  1.00  0.00  0.00  0.00  0.06  0.00
  WS02006232WS02006231    1.00   0.00  0.00  0.00  1.00  0.00  0.00  0.00  0.00  0.00
  WS02006231WS02006230    1.00   0.00  0.00  0.00  0.73  0.00  0.26  0.00  0.00  0.00
  WS02006230WS02006229    1.00   0.00  0.00  0.00  1.00  0.00  0.00  0.00  0.01  0.00
  WS02006228WS02006109    1.00   0.00  0.00  0.00  1.00  0.00  0.00  0.00  0.00  0.00
  WS02006116WS02004401    1.00   0.01  0.00  0.00  0.99  0.00  0.00  0.00  0.01  0.00
  WS02006115WS02006116    1.00   0.01  0.00  0.00  0.97  0.00  0.00  0.02  0.01  0.00
  WS02006113WS02006111    1.00   0.01  0.00  0.00  0.14  0.86  0.00  0.00  0.10  0.00
  WS02006112WS02006115    1.00   0.01  0.00  0.00  0.99  0.00  0.00  0.00  0.00  0.00
  WS02006111WS02006112    1.00   0.01  0.00  0.00  0.99  0.00  0.00  0.00  0.73  0.00
  WS02006110WS02006113    1.00   0.00  0.00  0.00  0.99  0.00  0.00  0.00  0.00  0.00
  WS02006109WS02006110    1.00   0.00  0.00  0.00  1.00  0.00  0.00  0.00  0.00  0.00
  WS02004411WS02004412    1.00   0.05  0.00  0.00  0.95  0.00  0.00  0.00  0.00  0.00
  WS02004401WS02004402    1.00   0.01  0.00  0.00  0.99  0.00  0.00  0.00  0.01  0.00
  WS02004413WS02003067    1.00   0.05  0.01  0.00  0.00  0.00  0.94  0.00  0.00  0.00
  WS02004412WS02004413    1.00   0.05  0.00  0.00  0.95  0.00  0.00  0.00  0.00  0.00
  WS02004410WS02004411    1.00   0.05  0.00  0.00  0.95  0.00  0.00  0.00  0.00  0.00
  WS02004409WS02004410    1.00   0.04  0.00  0.00  0.95  0.00  0.00  0.00  0.00  0.00
  WS02004407WS02004409    1.00   0.04  0.00  0.00  0.95  0.01  0.00  0.00  0.81  0.00
  WS02004406WS02004407    1.00   0.00  0.04  0.00  0.96  0.00  0.00  0.00  0.00  0.00
  WS02004405WS02004406    1.00   0.00  0.00  0.00  1.00  0.00  0.00  0.00  0.02  0.00
  WS02004404WS02004405    1.00   0.00  0.00  0.00  1.00  0.00  0.00  0.00  0.00  0.00
  WS02004403WS02004404    1.00   0.00  0.01  0.00  0.99  0.00  0.00  0.00  0.02  0.00
  WS02004402WS02004403    1.00   0.01  0.00  0.00  0.99  0.00  0.00  0.00  0.00  0.00
  WS02004139WS02001211    1.00   0.00  0.00  0.00  1.00  0.00  0.00  0.00  0.00  0.00
  WS02004138WS02004139    1.00   0.00  0.00  0.00  1.00  0.00  0.00  0.00  1.00  0.00
  WS02003067WS02003066    1.00   0.06  0.00  0.00  0.94  0.00  0.00  0.00  0.00  0.00
  WS02001213WS02003059    1.00   0.00  0.00  0.00  1.00  0.00  0.00  0.00  0.00  0.00
  WS02001212WS02001213    1.00   0.00  0.00  0.00  0.94  0.00  0.06  0.00  0.00  0.00
  WS02001211WS02001212    1.00   0.00  0.00  0.00  1.00  0.00  0.00  0.00  0.00  0.00
  WS02003072WS02003073    1.00   0.00  0.00  0.00  0.00  0.00  0.00  1.00  0.00  0.00
  WS02003069WS02003072    1.00   0.00  0.00  0.00  1.00  0.00  0.00  0.00  0.06  0.00
  WS02003060WS02003069    1.00   0.00  0.00  0.00  0.99  0.01  0.00  0.00  0.05  0.00
  WS02003059WS02003060    1.00   0.00  0.00  0.00  1.00  0.00  0.00  0.00  0.00  0.00
  HS02004901HS02004770    1.00   0.03  0.00  0.00  0.97  0.00  0.00  0.00  0.00  0.00
  HS02004876HS02004881    1.00   0.01  0.00  0.00  0.84  0.16  0.00  0.00  0.00  0.00
  HS02004870HS02004876    1.00   0.00  0.00  0.00  1.00  0.00  0.00  0.00  0.95  0.00
  HS02004842HS02004848    1.00   0.00  0.03  0.00  0.97  0.00  0.00  0.00  0.53  0.00
  HS02004837HS02004842    1.00   0.00  0.00  0.00  1.00  0.00  0.00  0.00  0.11  0.00
  HS02004830HS02004837    1.00   0.00  0.00  0.00  1.00  0.00  0.00  0.00  0.99  0.00
  HS02004824HS02004830    1.00   0.00  0.00  0.00  1.00  0.00  0.00  0.00  0.03  0.00
  HS02004817HS02004824    1.00   0.00  0.00  0.00  1.00  0.00  0.00  0.00  0.86  0.00
  HS02004770HS02004777    1.00   0.00  0.03  0.00  0.97  0.00  0.00  0.00  0.01  0.00
  HS02004799HS02004480    1.00   0.00  0.01  0.00  0.96  0.00  0.03  0.00  0.00  0.00
  HS02004792HS02004799    1.00   0.00  0.00  0.00  1.00  0.00  0.00  0.00  0.98  0.00
  HS02004788HS02004792    1.00   0.00  0.00  0.00  1.00  0.00  0.00  0.00  0.98  0.00
  HS02004785HS02004788    1.00   0.00  0.00  0.00  1.00  0.00  0.00  0.00  0.00  0.00
  HS02004777HS02004785    1.00   0.00  0.00  0.00  1.00  0.00  0.00  0.00  0.10  0.00
  HS02004480HS02004478    1.00   0.03  0.00  0.00  0.73  0.00  0.00  0.24  0.00  0.00
  HS02004479HS02004480    1.00   0.01  0.00  0.00  0.99  0.00  0.00  0.00  0.10  0.00
  HS02004862HS02004870    1.00   0.00  0.00  0.00  1.00  0.00  0.00  0.00  0.02  0.00
  HS02004848HS02004852    1.00   0.03  0.00  0.00  0.97  0.00  0.00  0.00  0.83  0.00
  HS02004856HS02004862    1.00   0.00  0.04  0.00  0.96  0.00  0.00  0.00  0.85  0.00
  HS02004852HS02004856    1.00   0.03  0.00  0.00  0.97  0.00  0.00  0.00  0.69  0.00
  HS02004802HS02004478    1.00   0.03  0.00  0.00  0.97  0.00  0.00  0.00  0.01  0.00
  HS02004478WS02006287    1.00   0.03  0.00  0.00  0.77  0.19  0.00  0.00  0.58  0.00
  HS02004817HS02004807    1.00   0.00  0.03  0.00  0.97  0.00  0.00  0.00  0.01  0.00
  HS02004807HS02004802    1.00   0.03  0.00  0.00  0.97  0.00  0.00  0.00  0.00  0.00
  YS02001759YS02001757    1.00   0.00  0.00  0.00  1.00  0.00  0.00  0.00  0.15  0.00
  YS02001762YS02001759    1.00   0.00  0.00  0.00  1.00  0.00  0.00  0.00  0.01  0.00
  YS02001765YS02001762    1.00   0.00  0.00  0.00  1.00  0.00  0.00  0.00  0.13  0.00
  YS02001770YS02001767    1.00   0.00  0.00  0.00  1.00  0.00  0.00  0.00  0.00  0.00
  YS02001774YS02001770    1.00   0.00  0.03  0.00  0.97  0.00  0.00  0.00  0.01  0.00
  YS02001779YS02001774    1.00   0.00  0.00  0.00  1.00  0.00  0.00  0.00  0.15  0.00
  YS02001649YS02001757    1.00   0.00  0.00  0.00  1.00  0.00  0.00  0.00  0.14  0.00
  YS02001767YS02001765    1.00   0.00  0.00  0.00  1.00  0.00  0.00  0.00  0.00  0.00
  YS02006561YS02001783    1.00   0.04  0.00  0.00  0.44  0.52  0.00  0.00  0.35  0.00
  YS02001783YS02001784    1.00   0.00  0.04  0.00  0.96  0.00  0.00  0.00  0.00  0.00
  YS02001784YS02001785    1.00   0.00  0.00  0.00  1.00  0.00  0.00  0.00  0.15  0.00
  YS02001788YS02001790    1.00   0.00  0.00  0.00  0.46  0.54  0.00  0.00  0.27  0.00
  YS02001790YS02001791    1.00   0.00  0.00  0.00  0.44  0.56  0.00  0.00  0.34  0.00
  YS02001791YS02001793    1.00   0.00  0.00  0.00  0.48  0.52  0.00  0.00  0.02  0.00
  YS02001910YS02001907    1.00   0.00  0.00  0.00  0.99  0.00  0.00  0.01  0.11  0.00
  YS02001786YS02001788    1.00   0.00  0.00  0.00  0.45  0.55  0.00  0.00  0.00  0.00
  YS02001915YS02001910    1.00   0.00  0.00  0.00  0.99  0.01  0.00  0.00  0.12  0.00
  YS02001918YS02001915    1.00   0.00  0.00  0.00  0.99  0.00  0.00  0.00  0.44  0.00
  YS02001923YS02001920    1.00   0.00  0.00  0.00  1.00  0.00  0.00  0.00  0.65  0.00
  YS02001926YS02001923    1.00   0.00  0.02  0.00  0.23  0.00  0.75  0.00  0.00  0.00
  YS02001929YS02001926    1.00   0.00  0.03  0.00  0.97  0.00  0.00  0.00  0.56  0.00
  YS02001920YS02001918    1.00   0.00  0.00  0.00  1.00  0.00  0.00  0.00  0.00  0.00
  YS02001629YS02163301    1.00   0.03  0.00  0.00  0.96  0.00  0.00  0.00  0.00  0.00
  YS02001619YS02001622    1.00   0.03  0.00  0.00  0.97  0.00  0.00  0.00  0.00  0.00
  YS02001622YS02001625    1.00   0.03  0.00  0.00  0.97  0.00  0.00  0.00  0.02  0.00
  YS02001625YS02001629    1.00   0.03  0.01  0.00  0.95  0.00  0.01  0.00  0.00  0.00
  YS02163301YS02001633    1.00   0.00  0.03  0.00  0.97  0.00  0.00  0.00  0.00  0.00
  YS02163601YS02164001    1.00   0.00  0.02  0.00  0.98  0.00  0.00  0.00  0.00  0.00
  YS02164001YS02001641    1.00   0.00  0.02  0.00  0.98  0.00  0.00  0.00  0.05  0.00
  YS02001641YS02001644    1.00   0.00  0.00  0.00  1.00  0.00  0.00  0.00  0.00  0.00
  YS02001647YS02001649    1.00   0.00  0.04  0.00  0.96  0.00  0.00  0.00  0.01  0.00
  YS02006553YS02006556    1.00   0.00  0.00  0.00  1.00  0.00  0.00  0.00  0.03  0.00
  YS02006556YS02006558    1.00   0.00  0.00  0.00  1.00  0.00  0.00  0.00  0.00  0.00
  YSB6556YSB1171          1.00   0.01  0.02  0.00  0.97  0.00  0.00  0.00  0.00  0.00
  YS02001907YS02006553    1.00   0.00  0.01  0.00  0.99  0.00  0.00  0.00  0.00  0.00
  YS02006558YS02006561    1.00   0.04  0.00  0.00  0.23  0.73  0.00  0.00  0.35  0.00
  YS02001633YS02163601    1.00   0.00  0.00  0.00  1.00  0.00  0.00  0.00  0.14  0.00
  YS02001644YS02001647    1.00   0.00  0.04  0.00  0.96  0.00  0.00  0.00  0.00  0.00
  YS02001745YS02001748    1.00   0.00  0.00  0.00  0.94  0.00  0.00  0.05  0.00  0.00
  YS02001748YS02001751    1.00   0.00  0.00  0.00  0.98  0.02  0.00  0.00  0.13  0.00
  YS02001751YS02001754    1.00   0.00  0.00  0.00  0.96  0.00  0.00  0.04  0.01  0.00
  YS02001754YS02001757    1.00   0.00  0.00  0.00  1.00  0.00  0.00  0.00  0.15  0.00
  YS02001882YS02001884    1.00   0.03  0.00  0.00  0.97  0.00  0.00  0.00  0.00  0.00
  YS02001884YS02001887    1.00   0.02  0.01  0.00  0.97  0.00  0.00  0.00  0.00  0.00
  YS02001890YS02001895    1.00   0.00  0.03  0.00  0.97  0.00  0.00  0.00  0.00  0.00
  YS02001895YS02001898    1.00   0.03  0.00  0.00  0.96  0.00  0.01  0.00  0.00  0.00
  YS02001898YS02001901    1.00   0.04  0.00  0.00  0.96  0.00  0.00  0.00  0.00  0.00
  YS02001901YS02001904    1.00   0.04  0.00  0.00  0.96  0.00  0.00  0.00  0.00  0.00
  YS02001904YS02001907    1.00   0.00  0.03  0.00  0.96  0.00  0.00  0.00  0.00  0.00
  YS02001887YS02001890    1.00   0.00  0.00  0.00  0.99  0.00  0.01  0.00  0.00  0.00
  YS02001652YS02001649    1.00   0.00  0.00  0.00  1.00  0.00  0.00  0.00  0.14  0.00
  YS02001655YS02001652    1.00   0.00  0.00  0.00  0.96  0.00  0.00  0.04  0.01  0.00
  YS02001658YS02001655    1.00   0.00  0.03  0.00  0.95  0.02  0.00  0.00  0.01  0.00
  YS02001661YS02001658    1.00   0.03  0.00  0.00  0.94  0.02  0.00  0.00  0.00  0.00
  YS02001664YS02001661    1.00   0.03  0.00  0.00  0.95  0.02  0.00  0.00  0.06  0.00
  YSB1154YSB6556          1.00   0.03  0.00  0.00  0.97  0.00  0.00  0.00  0.01  0.00
  YSB1174YSB1171          1.00   0.01  0.01  0.00  0.98  0.00  0.00  0.00  0.00  0.00
  YSB1171HS02004479       1.00   0.01  0.00  0.00  0.99  0.00  0.00  0.00  0.09  0.00
  HS02004881HS02006253    1.00   0.01  0.00  0.00  0.89  0.02  0.00  0.07  0.78  0.00
  YS02001793JiankangQianchi    1.00   0.00  0.00  0.00  0.71  0.29  0.00  0.00  0.27  0.00
  YS02001757CaochengTiaoxuchi    1.00   0.00  0.05  0.00  0.93  0.02  0.00  0.00  0.00  0.00
  WSF200WS02003060        1.00   0.00  0.02  0.00  0.98  0.00  0.00  0.00  0.24  0.00
  1                       1.00   0.00  0.00  0.00  0.00  1.00  0.00  0.00  0.57  0.00
  
  
  *************************
  Conduit Surcharge Summary
  *************************
  
  ----------------------------------------------------------------------------
                                                           Hours        Hours 
                         --------- Hours Full --------   Above Full   Capacity
  Conduit                Both Ends  Upstream  Dnstream   Normal Flow   Limited
  ----------------------------------------------------------------------------
  WS02006280WS02006229        0.01      0.01      0.01      0.01         0.01
  WS02006229WS02006228        5.06      5.10      5.06      5.43         5.06
  WS02006256WS02006235        6.36      6.37      6.89      5.19         0.01
  WS02006253WS02006251        2.87      2.87      2.89      0.01         0.01
[...]
  YS02001649YS02001757        6.40      6.40      6.42      0.01         0.01
  YS02001767YS02001765        6.39      6.39      6.40      0.01         0.01
  YS02006561YS02001783        2.42      2.42      2.63      0.01         0.01
  YS02001783YS02001784        2.60      2.63      2.60      2.88         2.60
  YS02001784YS02001785        2.52      2.60      2.52      3.62         2.52
  YS02001788YS02001790        2.47      2.47      3.25      0.01         0.01
  YS02001790YS02001791        3.24      3.25      3.34      2.56         2.54
  YS02001791YS02001793        3.34      3.34      3.68      0.01         0.01
  YS02001910YS02001907        2.67      2.67      3.10      0.01         0.01
  YS02001786YS02001788        2.47      2.52      2.47      3.27         2.47
  YS02001915YS02001910        2.54      2.54      2.67      0.01         0.01
  YS02001918YS02001915        2.40      2.40      2.54      0.01         0.01
  YS02001923YS02001920        2.24      2.24      2.42      0.01         0.01
  YS02001926YS02001923        0.01      0.01      0.01      0.01         0.01
  YS02001929YS02001926        0.01      0.01      0.01      0.01         0.01
  YS02001920YS02001918        2.40      2.40      2.42      0.01         0.01
  YS02001629YS02163301        6.38      6.38      6.39      0.01         0.01
  YS02001619YS02001622        6.37      6.37      6.37      0.01         0.02
  YS02001622YS02001625        6.37      6.37      6.38      0.01         0.01
  YS02001625YS02001629        6.37      6.37      6.38      0.01         0.01
  YS02163301YS02001633        6.39      6.39      6.40      0.01         0.01
  YS02163601YS02164001        6.40      6.40      6.40      0.01         0.01
  YS02164001YS02001641        6.40      6.40      6.40      0.01         0.02
  YS02001641YS02001644        6.40      6.40      6.40      3.17         3.13
  YS02001647YS02001649        6.38      6.38      6.40      0.01         0.01
  YS02006553YS02006556        2.84      2.84      3.17      0.01         0.01
  YS02006556YS02006558        2.94      2.94      3.23      0.01         0.01
  YSB6556YSB1171              0.01      0.01      0.58      0.01         0.01
  YS02001907YS02006553        3.63      3.63      3.83      0.01         0.01
  YS02006558YS02006561        2.49      2.81      2.49      3.49         2.49
  YS02001633YS02163601        6.40      6.40      6.40      0.01         0.01
  YS02001644YS02001647        6.38      6.38      6.40      0.01         0.01
  YS02001745YS02001748        0.94      0.94      6.35      0.01         0.01
  YS02001748YS02001751        6.35      6.35      6.36      0.01         0.01
  YS02001751YS02001754        6.36      6.36      6.38      0.01         0.01
  YS02001754YS02001757        6.38      6.38      6.42      0.01         0.01
  YS02001882YS02001884        2.54      2.54      2.55      0.01         0.01
  YS02001884YS02001887        2.59      2.59      2.62      0.01         0.01
  YS02001890YS02001895        2.53      2.53      2.68      0.01         0.01
  YS02001895YS02001898        2.51      2.51      2.53      0.01         0.01
  YS02001898YS02001901        2.53      2.53      2.59      0.01         0.01
  YS02001901YS02001904        2.57      2.57      2.59      0.01         0.01
  YS02001904YS02001907        2.57      2.57      3.20      0.01         0.01
  YS02001887YS02001890        2.64      2.64      2.66      1.66         0.01
  YS02001652YS02001649        6.38      6.38      6.40      0.01         0.01
  YS02001655YS02001652        6.37      6.37      6.38      0.01         0.01
  YS02001658YS02001655        6.35      6.35      6.37      0.01         0.01
  YS02001661YS02001658        1.52      1.52      6.35      0.01         0.01
  YS02001664YS02001661        0.01      0.01      2.98      0.01         0.01
  YSB1174YSB1171              0.01      0.01      0.32      0.01         0.01
  HS02004881HS02006253        0.01      0.01      2.68      0.01         0.01
  YS02001793JiankangQianchi        3.59      3.59      4.76      0.01         0.01
  YS02001757CaochengTiaoxuchi        5.98      5.98      6.42      0.01         0.01
  
  
  ***************
  Pumping Summary
  ***************
  
  ---------------------------------------------------------------------------------------------------------
                                                  Min       Avg       Max     Total     Power    % Time Off
                        Percent   Number of      Flow      Flow      Flow    Volume     Usage    Pump Curve
  Pump                 Utilized   Start-Ups       LPS       LPS       LPS  10^6 ltr     Kw-hr    Low   High
  ---------------------------------------------------------------------------------------------------------
  CC-Pump-1               74.46           1      0.00    188.26    200.00     3.900      3.45    0.0    0.0
  CC-Pump-2               21.27           3      0.00    125.07    200.00     0.900      1.31    0.0    0.0
  JK-Pump-1               72.34           4      0.00    251.09    300.00     5.009     62.59    0.0    0.0
  JK-Pump-2               65.96           4      0.00    495.51    683.00     9.330    102.34    0.0   98.0
  XR-Pump-1               97.87           2      0.00     94.39     95.00     2.565     18.43    0.0    0.0
  XR-Pump-2               97.87           2      0.00     94.39     95.00     2.565     18.43    0.0    0.0
  XR-Pump-3               97.87           2      0.00     94.39     95.00     2.565     18.43    0.0    0.0
  XR-Pump-4               97.87           2      0.00     94.39     95.00     2.565     18.43    0.0    0.0
  
  
  ***************************
  Link Pollutant Load Summary
  ***************************
  
  ------------------------------------------------------------------------------------------
                                 COD            SS            TN            TP         NH4-N
  Link                            kg            kg            kg            kg            kg
  ------------------------------------------------------------------------------------------
  WS02003066WSF200          1460.804      2854.959        33.864         2.760        17.232
  WS02006287WS02006284       662.649      1308.498        17.242         1.527         9.011
  WS02006284WS02006280       663.102      1309.206        17.289         1.533         9.041
  WS02006280WS02006229       663.192      1309.485        17.287         1.533         9.040
  WS02006229WS02006228      1448.337      2831.139        33.060         2.656        16.742
  WS02006256WS02006235       294.763       562.371         6.259         0.466         3.109
  WS02006253WS02006251       122.295       248.679         2.532         0.180         1.226
  WS02006252WS02006251       541.385      1059.931        10.339         0.711         4.986
  WS02006251WS02006249       660.215      1302.196        12.834         0.891         6.200
  WS02006249WS02006248       530.592      1041.127        10.320         0.716         4.989
  WS02006248WS02006247       535.215      1049.943        10.435         0.726         5.050
  WS02006247WS02006245       533.381      1045.645        10.410         0.725         5.040
  WS02006245WS02006243       531.797      1041.902        10.390         0.724         5.032
  WS02006243WS02006242       530.179      1037.871        10.373         0.724         5.026
  WS02006242WS02006240       527.807      1032.364        10.336         0.723         5.010
  WS02006240WS02006239       526.642      1029.562        10.316         0.722         5.002
  WS02006239WS02006238       526.600      1029.313        10.313         0.722         5.000
  WS02006238WS02006235       526.365      1028.820        10.297         0.720         4.991
  WS02006235WS02006234       793.886      1538.758        15.981         1.141         7.810
  WS02006234WS02006232       796.515      1544.048        16.053         1.148         7.849
  WS02006232WS02006231       799.462      1550.031        16.129         1.155         7.889
  WS02006231WS02006230       802.740      1556.803        16.211         1.163         7.932
  WS02006230WS02006229       806.830      1565.396        16.301         1.171         7.978
  WS02006228WS02006109      1447.548      2829.687        33.040         2.655        16.732
  WS02006116WS02004401      1477.549      2886.501        34.227         2.786        17.412
  WS02006115WS02006116      1478.846      2888.942        34.256         2.788        17.427
  WS02006113WS02006111      1454.013      2839.845        33.799         2.752        17.212
  WS02006112WS02006115      1480.602      2892.256        34.305         2.793        17.452
  WS02006111WS02006112      1453.133      2837.979        33.781         2.751        17.203
  WS02006110WS02006113      1454.512      2840.612        33.817         2.754        17.222
  WS02006109WS02006110      1455.532      2842.332        33.852         2.757        17.241
  WS02004411WS02004412      1465.882      2864.465        34.011         2.773        17.311
  WS02004401WS02004402      1475.901      2883.414        34.181         2.782        17.387
  WS02004413WS02003067      1461.883      2856.988        33.887         2.761        17.243
  WS02004412WS02004413      1464.156      2861.222        33.967         2.770        17.288
  WS02004410WS02004411      1467.309      2867.135        34.047         2.776        17.329
  WS02004409WS02004410      1468.783      2869.892        34.086         2.779        17.350
  WS02004407WS02004409      1470.037      2872.223        34.116         2.782        17.365
  WS02004406WS02004407      1470.309      2872.671        34.119         2.782        17.366
  WS02004405WS02004406      1472.295      2876.287        34.194         2.789        17.409
  WS02004404WS02004405      1473.481      2878.602        34.194         2.787        17.404
  WS02004403WS02004404      1473.179      2878.332        34.108         2.776        17.349
  WS02004402WS02004403      1474.491      2880.782        34.145         2.779        17.369
  WS02004139WS02001211      1287.395      2234.336        86.729        10.257        52.523
  WS02004138WS02004139      1293.168      2244.268        87.114        10.302        52.755
  WS02003067WS02003066      1461.099      2855.508        33.872         2.761        17.236
  WS02001213WS02003059      1321.272      2287.008        90.355        10.716        54.807
  WS02001212WS02001213      1329.952      2301.742        90.985        10.791        55.191
  WS02001211WS02001212      1332.148      2305.360        91.167        10.814        55.303
  WS02003072WS02003073      2880.793      5297.637       134.285        14.744        78.354
  WS02003069WS02003072      2886.498      5307.184       134.726        14.797        78.625
  WS02003060WS02003069      2889.488      5312.632       134.842        14.809        78.691
  WS02003059WS02003060      1318.337      2281.838        90.190        10.697        54.709
  HS02004901HS02004770        31.237        62.178         0.612         0.047         0.291
  HS02004876HS02004881       101.415       206.331         2.154         0.154         1.046
  HS02004870HS02004876        77.889       158.597         1.700         0.122         0.826
  HS02004842HS02004848        14.996        29.644         0.314         0.022         0.147
  HS02004837HS02004842        19.707        37.150         0.788         0.082         0.444
  HS02004830HS02004837       101.806       187.057         5.288         0.600         3.141
  HS02004824HS02004830       102.663       188.507         5.364         0.610         3.188
  HS02004817HS02004824       158.471       303.826         6.498         0.682         3.738
  HS02004770HS02004777       119.646       241.814         2.495         0.175         1.169
  HS02004799HS02004480       374.825       742.452         8.578         0.702         4.270
  HS02004792HS02004799       343.086       676.948         8.002         0.666         3.998
  HS02004788HS02004792       180.013       356.938         4.686         0.402         2.399
  HS02004785HS02004788       121.026       244.018         2.637         0.193         1.258
  HS02004777HS02004785       120.344       242.936         2.574         0.185         1.219
  HS02004480HS02004478       464.820       922.695        10.233         0.827         5.069
  HS02004479HS02004480        93.772       186.478         1.954         0.161         0.984
  HS02004862HS02004870        60.204       121.272         1.340         0.100         0.653
  HS02004848HS02004852        26.761        53.672         0.548         0.038         0.256
  HS02004856HS02004862        41.869        85.061         0.850         0.058         0.403
  HS02004852HS02004856        26.785        53.715         0.548         0.038         0.257
  HS02004802HS02004478       198.962       387.636         7.078         0.708         3.984
  HS02004478WS02006287       662.731      1308.539        17.258         1.529         9.022
  HS02004817HS02004807       157.283       302.057         6.357         0.664         3.649
  HS02004807HS02004802       198.926       387.536         7.103         0.712         4.001
  YS02001759YS02001757       608.128      1174.912        11.878         0.843         5.795
  YS02001762YS02001759       341.625       658.636         6.899         0.493         3.387
  YS02001765YS02001762       342.076       660.792         6.918         0.495         3.399
  YS02001770YS02001767       347.165       674.314         6.874         0.482         3.354
  YS02001774YS02001770       813.306      1619.334        15.909         1.085         7.724
  YS02001779YS02001774       812.862      1618.611        15.971         1.095         7.768
  YS02001649YS02001757       674.072      1312.296        13.297         0.917         6.428
  YS02001767YS02001765       343.979       665.852         6.958         0.498         3.419
  YS02006561YS02001783      1599.064      3067.386        33.090         2.423        16.319
  YS02001783YS02001784      1598.929      3067.174        33.085         2.423        16.316
  YS02001784YS02001785      1606.340      3079.092        33.798         2.512        16.762
  YS02001788YS02001790      1606.950      3080.101        33.870         2.521        16.808
  YS02001790YS02001791      1607.982      3081.806        33.969         2.534        16.870
  YS02001791YS02001793      1607.807      3081.481        33.963         2.533        16.866
  YS02001910YS02001907       951.969      1849.595        20.349         1.453        10.120
  YS02001786YS02001788      1606.569      3079.493        33.827         2.516        16.780
  YS02001915YS02001910       951.411      1848.487        20.299         1.446        10.089
  YS02001918YS02001915       473.219       888.171        10.548         0.857         5.395
  YS02001923YS02001920       447.667       844.238         8.515         0.610         4.140
  YS02001926YS02001923       444.567       838.593         8.394         0.598         4.071
  YS02001929YS02001926       441.869       833.769         8.299         0.588         4.017
  YS02001920YS02001918       468.756       878.737        10.452         0.850         5.347
  YS02001629YS02163301       210.521       398.212         4.143         0.295         1.982
  YS02001619YS02001622       451.019       868.436         9.084         0.615         4.291
  YS02001622YS02001625       450.709       868.041         9.072         0.614         4.286
  YS02001625YS02001629       204.905       387.233         4.043         0.287         1.932
  YS02163301YS02001633       216.248       409.439         4.242         0.303         2.031
  YS02163601YS02164001       716.017      1349.679        13.901         1.022         6.718
  YS02164001YS02001641       716.675      1350.866        13.901         1.021         6.716
  YS02001641YS02001644       719.062      1355.177        13.936         1.023         6.731
  YS02001647YS02001649       845.435      1633.596        16.878         1.187         8.096
  YS02006553YS02006556       808.482      1513.782        17.489         1.314         8.750
  YS02006556YS02006558       808.998      1514.751        17.457         1.309         8.726
  YSB6556YSB1171              54.545       108.519         1.086         0.087         0.541
  YS02001907YS02006553       808.213      1513.278        17.532         1.320         8.779
  YS02006558YS02006561      1598.965      3067.169        33.089         2.423        16.318
  YS02001633YS02163601       716.566      1350.582        13.878         1.017         6.699
  YS02001644YS02001647       853.225      1648.845        17.006         1.197         8.158
  YS02001745YS02001748       597.877      1178.532        11.860         0.761         5.723
  YS02001748YS02001751       597.412      1177.775        11.871         0.763         5.732
  YS02001751YS02001754       596.706      1176.630        11.859         0.763         5.728
  YS02001754YS02001757       597.897      1178.532        12.029         0.786         5.836
  YS02001882YS02001884         8.989        16.462         0.165         0.012         0.080
  YS02001884YS02001887         9.183        16.893         0.169         0.013         0.083
  YS02001890YS02001895       826.780      1597.732        15.713         1.197         7.694
  YS02001895YS02001898       826.827      1597.859        15.713         1.197         7.694
  YS02001898YS02001901       825.756      1596.207        15.681         1.194         7.677
  YS02001901YS02001904       824.755      1594.777        15.670         1.194         7.673
  YS02001904YS02001907       827.519      1599.113        15.808         1.209         7.754
  YS02001887YS02001890      1075.586      2094.339        20.302         1.549         9.936
  YS02001652YS02001649       539.109      1045.552        10.727         0.784         5.067
  YS02001655YS02001652       539.420      1046.109        10.737         0.785         5.072
  YS02001658YS02001655       538.771      1045.126        10.646         0.773         5.014
  YS02001661YS02001658       539.014      1045.539        10.650         0.773         5.016
  YS02001664YS02001661       556.172      1072.647        11.079         0.802         5.213
  YSB1154YSB6556              54.070       107.778         1.038         0.081         0.511
  YSB1174YSB1171              37.704        75.534         0.747         0.059         0.369
  YSB1171HS02004479           93.612       186.166         1.960         0.162         0.989
  HS02004881HS02006253       114.042       232.629         2.387         0.169         1.158
  YS02001793JiankangQianchi      1608.445      3082.534        33.986         2.536        16.879
  YS02001757CaochengTiaoxuchi       845.726      1635.112        16.542         1.138         8.002
  WSF200WS02003060          1460.406      2854.181        33.869         2.761        17.237
  1                         2887.340      5306.578       135.329        14.881        79.024
  CC-Pump-1                  442.571       866.775         8.442         0.581         4.070
  CC-Pump-2                   98.628       192.741         1.894         0.130         0.914
  JK-Pump-1                  464.093       894.570         9.625         0.710         4.757
  JK-Pump-2                  998.924      1938.779        20.432         1.501        10.069
  XR-Pump-1                  324.196       562.594        21.846         2.584        13.230
  XR-Pump-2                  324.196       562.594        21.846         2.584        13.230
  XR-Pump-3                  324.196       562.594        21.846         2.584        13.230
  XR-Pump-4                  324.196       562.594        21.846         2.584        13.230
  

  Analysis begun on:  Wed Jul 14 14:02:53 2021
  Analysis ended on:  Wed Jul 14 14:02:56 2021
  Total elapsed time: 00:00:03