
  EPA STORM WATER MANAGEMENT MODEL - VERSION 5.1 (Build 5.3.0.dev0)
  --------------------------------------------------------------

  WARNING 04: minimum elevation drop used for Conduit WS02004404WS02004405
  WARNING 03: negative offset ignored for Link YS02001904YS02001907
  
  *********************************************************
  NOTE: The summary statistics displayed in this report are
  based on results found at every computational time step,  
  not just on results from each reporting time step.
  *********************************************************
  
  ****************
  Analysis Options
  ****************
  Flow Units ............... LPS
  Process Models:
    Rainfall/Runoff ........ YES
    RDII ................... NO
    Snowmelt ............... NO
    Groundwater ............ NO
    Flow Routing ........... YES
    Ponding Allowed ........ NO
    Water Quality .......... YES
  Infiltration Method ...... HORTON
  Flow Routing Method ...... DYNWAVE
  Surcharge Method ......... EXTRAN
  Starting Date ............ 08/28/2015 08:00:00
  Ending Date .............. 08/28/2015 15:50:00
  Antecedent Dry Days ...... 8.0
  Report Time Step ......... 00:01:00
  Wet Time Step ............ 00:01:00
  Dry Time Step ............ 00:01:00
  Routing Time Step ........ 5.00 sec
  Variable Time Step ....... YES
  Maximum Trials ........... 8
  Number of Threads ........ 4
  Head Tolerance ........... 0.001500 m
  
  
  **************************        Volume         Depth
  Runoff Quantity Continuity     hectare-m            mm
  **************************     ---------       -------
  Total Precipitation ......         7.641        16.729
  Evaporation Loss .........         0.000         0.000
  Infiltration Loss ........         1.184         2.592
  Surface Runoff ...........         5.481        12.000
  Final Storage ............         0.977         2.139
  Continuity Error (%) .....        -0.016
  
  
  **************************           COD            SS            TN            TP         NH4-N
  Runoff Quality Continuity             kg            kg            kg            kg            kg
  **************************    ----------    ----------    ----------    ----------    ----------
  Initial Buildup ..........     41378.656     70582.865      1804.177       168.684      1032.807
  Surface Buildup ..........        30.344        63.217         2.449         0.220         1.402
  Wet Deposition ...........         0.000         0.000         0.000         0.000         0.000
  Sweeping Removal .........         0.000         0.000         0.000         0.000         0.000
  Infiltration Loss ........       127.934       247.015         2.452         0.174         1.174
  BMP Removal ..............         0.000         0.000         0.000         0.000         0.000
  Surface Runoff ...........      5553.100     10632.121       107.101         7.411        51.076
  Remaining Buildup ........     35725.917     59762.998      1697.031       161.316       981.940
  Continuity Error (%) .....         0.005         0.006         0.002         0.002         0.002
  
  
  **************************        Volume        Volume
  Flow Routing Continuity        hectare-m      10^6 ltr
  **************************     ---------     ---------
  Dry Weather Inflow .......         0.616         6.165
  Wet Weather Inflow .......         5.479        54.792
  Groundwater Inflow .......         0.000         0.000
  RDII Inflow ..............         0.000         0.000
  External Inflow ..........         0.102         1.024
  External Outflow .........         2.230        22.305
  Flooding Loss ............         3.512        35.125
  Evaporation Loss .........         0.000         0.000
  Exfiltration Loss ........         0.000         0.000
  Initial Stored Volume ....         0.076         0.761
  Final Stored Volume ......         0.646         6.457
  Continuity Error (%) .....        -1.826
  
  
  **************************           COD            SS            TN            TP         NH4-N
  Quality Routing Continuity            kg            kg            kg            kg            kg
  **************************    ----------    ----------    ----------    ----------    ----------
  Dry Weather Inflow .......      1541.201      2465.922       147.955        18.494        92.472
  Wet Weather Inflow .......      5552.095     10630.361       107.079         7.410        51.066
  Groundwater Inflow .......         0.000         0.000         0.000         0.000         0.000
  RDII Inflow ..............         0.000         0.000         0.000         0.000         0.000
  External Inflow ..........       183.418       293.469        17.608         2.201        11.005
  External Outflow .........      2701.548      4835.115       144.886        16.478        86.126
  Flooding Loss ............      3884.478      7362.608        99.215         8.671        52.108
  Exfiltration Loss ........         0.000         0.000         0.000         0.000         0.000
  Mass Reacted .............         0.000         0.000         0.000         0.000         0.000
  Initial Stored Mass ......         0.000         0.000         0.000         0.000         0.000
  Final Stored Mass ........       567.349       985.596        24.966         2.648        14.421
  Continuity Error (%) .....         1.695         1.542         1.312         1.095         1.222
  
  
  *************************
  Highest Continuity Errors
  *************************
  Node YS02001884 (11.75%)
  Node HS02004842 (10.96%)
  Node JK-storage (-9.20%)
  Node HS02004817 (2.13%)
  Node YSB1171 (1.97%)
  
  
  ***************************
  Time-Step Critical Elements
  ***************************
  Link WS02006252WS02006251 (67.95%)
  Link WS02006280WS02006229 (10.53%)
  Link YS02001793JiankangQianchi (4.95%)
  Link WS02004404WS02004405 (3.74%)
  Link WS02006238WS02006235 (3.65%)
  
  
  ********************************
  Highest Flow Instability Indexes
  ********************************
  Link YS02163601YS02164001 (35)
  Link WS02006113WS02006111 (35)
  Link YS02001629YS02163301 (34)
  Link YS02163301YS02001633 (34)
  Link YS02001619YS02001622 (34)
  
  
  *************************
  Routing Time Step Summary
  *************************
  Minimum Time Step           :     0.50 sec
  Average Time Step           :     1.09 sec
  Maximum Time Step           :     5.00 sec
  Percent in Steady State     :    -0.00
  Average Iterations per Step :     4.06
  Percent Not Converging      :    17.18
  
  
  ***************************
  Subcatchment Runoff Summary
  ***************************
  
  ------------------------------------------------------------------------------------------------------------------------------
                            Total      Total      Total      Total     Imperv       Perv      Total       Total     Peak  Runoff
                           Precip      Runon       Evap      Infil     Runoff     Runoff     Runoff      Runoff   Runoff   Coeff
  Subcatchment                 mm         mm         mm         mm         mm         mm         mm    10^6 ltr      LPS
  ------------------------------------------------------------------------------------------------------------------------------
  sub0                      16.73       0.00       0.00       0.71      15.51       0.47      15.98        0.01     3.87   0.955
  sub1                      16.73       0.00       0.00       1.18      14.80       0.66      15.46        0.10    26.74   0.924
  sub2                      16.73       0.00       0.00       4.79      10.46       1.40      11.85        0.11    25.81   0.708
  sub3                      16.73       0.00       0.00       5.01      10.42       1.18      11.60        0.26    56.97   0.693
  sub4                      16.73       0.00       0.00       1.28      14.64       0.56      15.20        0.32    66.74   0.909
  sub5                      16.73       0.00       0.00       0.73      15.46       0.44      15.91        0.18    46.91   0.951
  sub7                      16.73       0.00       0.00       0.93      15.16       0.58      15.74        0.05    14.85   0.941
  sub8                      16.73       0.00       0.00       0.94      15.15       0.57      15.72        0.10    27.42   0.940
  sub9                      16.73       0.00       0.00       0.94      15.15       0.57      15.72        0.08    20.52   0.940
  sub10                     16.73       0.00       0.00       0.83      15.30       0.50      15.81        0.17    46.04   0.945
  sub11                     16.73       0.00       0.00       0.83      15.32       0.51      15.83        0.18    50.62   0.947
  sub12                     16.73       0.00       0.00       1.34      14.51       0.83      15.34        0.13    39.22   0.917
  sub14                     16.73       0.00       0.00       0.94      15.15       0.57      15.72        0.15    40.40   0.939
  sub15                     16.73       0.00       0.00       3.54      11.65       1.48      13.13        0.23    57.86   0.785
  sub16                     16.73       0.00       0.00       3.72      11.17       1.80      12.97        0.14    37.34   0.776
  sub17                     16.73       0.00       0.00       3.62      11.33       1.73      13.07        0.11    30.57   0.781
  sub22                     16.73       0.00       0.00       5.27       9.49       1.92      11.42        0.72   183.11   0.683
  sub23                     16.73       0.00       0.00       4.37      10.50       1.82      12.32        0.59   153.57   0.736
  sub60                     16.73       0.00       0.00       1.74      12.78       0.27      13.05        3.96   446.24   0.780
  sub61                     16.73       0.00       0.00       2.46      12.72       0.38      13.11        4.04   542.53   0.784
  sub62                     16.73       0.00       0.00       1.06      13.91       0.27      14.19        4.36   558.01   0.848
  sub63                     16.73       0.00       0.00       4.39      11.06       0.46      11.52        3.49   496.40   0.689
  sub64                     16.73       0.00       0.00       2.23      12.28       0.28      12.56        3.82   424.95   0.751
  sub65                     16.73       0.00       0.00       1.91      12.51       0.27      12.77        3.93   431.32   0.764
  sub66                     16.73       0.00       0.00       4.54      10.46       0.31      10.78        3.31   388.44   0.644
  sub67                     16.73       0.00       0.00       1.01      14.45       0.32      14.78        4.56   675.76   0.883
  sub68                     16.73       0.00       0.00       1.95      13.33       0.39      13.71        4.22   589.75   0.820
  sub69                     16.73       0.00       0.00       2.00      13.62       0.51      14.12        3.30   542.07   0.844
  sub70                     16.73      14.42       0.00       8.47      19.01       2.12      21.13        4.84   534.50   0.678
  sub71                     16.73       0.00       0.00       1.08      13.65       0.25      13.90        3.28   394.68   0.831
  sub72                     16.73       0.00       0.00       1.02      11.50       0.15      11.65        2.37   206.66   0.697
  1                         16.73      20.58       0.00       1.37      22.38       7.20      29.58        6.95   612.18   0.793
  2                         16.73       0.00       0.00       3.02       4.04       3.18       7.22        2.89   331.58   0.431
  
  
  ****************************
  Subcatchment Washoff Summary
  ****************************
  
  ------------------------------------------------------------------------------------------
                                 COD            SS            TN            TP         NH4-N
  Subcatchment                    kg            kg            kg            kg            kg
  ------------------------------------------------------------------------------------------
  sub0                         3.641         7.161         0.064         0.005         0.031
  sub1                        15.670        31.767         0.296         0.021         0.143
  sub2                        10.304        20.454         0.214         0.015         0.099
  sub3                        25.293        49.815         0.517         0.036         0.240
  sub4                        36.168        74.260         0.714         0.044         0.344
  sub5                        35.763        71.366         0.649         0.050         0.316
  sub7                         7.894        16.212         0.150         0.010         0.073
  sub8                        11.755        24.726         0.234         0.014         0.113
  sub9                        10.113        20.966         0.196         0.013         0.095
  sub10                       29.347        59.341         0.545         0.040         0.265
  sub11                       28.395        58.052         0.536         0.037         0.260
  sub12                       24.463        49.072         0.450         0.034         0.218
  sub14                       21.697        44.543         0.414         0.028         0.200
  sub15                       29.696        58.821         0.572         0.042         0.270
  sub16                       19.246        38.050         0.367         0.028         0.174
  sub17                       17.687        34.653         0.330         0.026         0.156
  sub22                       95.915       186.896         1.820         0.139         0.857
  sub23                       54.382       109.539         1.141         0.076         0.527
  sub60                      353.947       679.509         6.988         0.437         3.357
  sub61                      439.695       840.113         8.188         0.570         3.952
  sub62                      449.790       873.119         8.744         0.564         4.209
  sub63                      328.186       618.356         6.505         0.463         3.037
  sub64                      450.924       835.563         8.299         0.611         3.976
  sub65                      460.537       856.688         8.527         0.617         4.090
  sub66                      259.427       485.147         5.248         0.348         2.463
  sub67                      667.181      1281.068        12.075         0.900         5.853
  sub68                      479.473       924.467         9.153         0.628         4.389
  sub69                      429.286       835.450         8.068         0.576         3.873
  sub70                      758.301      1478.311        15.194         1.074         7.173
  sub71                      296.268       580.620         6.027         0.356         2.890
  sub72                      247.759       452.374         4.612         0.320         2.223
  1                          576.917      1130.968        11.723         0.829         5.484
  2                           65.566       118.435         1.802         0.109         0.773
  ------------------------------------------------------------------------------------------
  System                    6740.687     12945.882       130.363         9.060        62.122
  
  
  ******************
  Node Depth Summary
  ******************
  
  ---------------------------------------------------------------------------------
                                 Average  Maximum  Maximum  Time of Max    Reported
                                   Depth    Depth      HGL   Occurrence   Max Depth
  Node                 Type       Meters   Meters   Meters  days hr:min      Meters
  ---------------------------------------------------------------------------------
  WS02001211           JUNCTION     0.78     0.85     5.69     0  02:02        0.85
  WS02001212           JUNCTION     0.49     0.58     5.64     0  02:01        0.58
  WS02001213           JUNCTION     0.74     0.86     5.62     0  02:01        0.86
  WS02003069           JUNCTION     0.54     0.72     5.31     0  02:01        0.72
  WS02003072           JUNCTION     0.60     0.77     5.14     0  02:00        0.77
  WS02003073           JUNCTION     0.37     0.48     4.55     0  02:01        0.48
  WS02003060           JUNCTION     0.48     0.64     5.57     0  02:00        0.64
  WS02003066           JUNCTION     0.27     0.39     5.94     0  01:55        0.39
  WS02003059           JUNCTION     0.79     0.91     5.60     0  02:01        0.91
  WS02003067           JUNCTION     0.64     0.83     6.15     0  01:53        0.83
  WS02004401           JUNCTION     0.78     1.31     7.31     0  01:51        1.29
  WS02004402           JUNCTION     0.81     1.29     7.25     0  01:51        1.27
  WS02004403           JUNCTION     0.82     1.27     7.20     0  01:51        1.24
  WS02004404           JUNCTION     0.89     1.31     7.16     0  01:51        1.27
  WS02004406           JUNCTION     0.89     1.20     7.03     0  01:51        1.18
  WS02004409           JUNCTION     0.59     0.98     6.75     0  01:54        0.98
  WS02004410           JUNCTION     0.60     0.96     6.68     0  01:54        0.96
  WS02004411           JUNCTION     0.62     0.94     6.62     0  01:54        0.94
  WS02004412           JUNCTION     0.62     0.92     6.56     0  01:54        0.91
  WS02004413           JUNCTION     0.78     1.03     6.50     0  01:54        1.03
  WS02004405           JUNCTION     0.89     1.28     7.13     0  01:51        1.24
  WS02006109           JUNCTION     0.88     1.83     8.45     0  01:51        1.74
  WS02006110           JUNCTION     0.85     1.86     8.45     0  01:51        1.53
  WS02006111           JUNCTION     0.29     1.10     7.80     0  01:51        0.97
  WS02006112           JUNCTION     0.97     1.67     7.55     0  01:51        1.64
  WS02006113           JUNCTION     0.41     1.52     8.42     0  01:51        1.02
  WS02006115           JUNCTION     0.68     1.32     7.46     0  01:51        1.30
  WS02006116           JUNCTION     0.76     1.35     7.39     0  01:51        1.33
  WS02006230           JUNCTION     0.93     1.97     8.72     0  01:52        1.95
  WS02006231           JUNCTION     0.68     1.61     8.73     0  01:52        1.58
  WS02006232           JUNCTION     0.83     1.70     8.74     0  01:52        1.68
  WS02006234           JUNCTION     0.78     1.59     8.75     0  01:52        1.57
  WS02006235           JUNCTION     0.83     1.60     8.76     0  01:52        1.57
  WS02006238           JUNCTION     0.86     1.61     8.76     0  01:52        1.59
  WS02006240           JUNCTION     0.78     1.44     8.74     0  01:52        1.43
  WS02006242           JUNCTION     0.84     1.46     8.73     0  01:52        1.44
  WS02006243           JUNCTION     0.73     1.30     8.72     0  01:52        1.28
  WS02006245           JUNCTION     0.71     1.22     8.71     0  01:52        1.21
  WS02006247           JUNCTION     0.73     1.20     8.70     0  01:52        1.20
  WS02006248           JUNCTION     0.67     1.10     8.69     0  01:51        1.10
  WS02006249           JUNCTION     0.69     1.09     8.69     0  01:50        1.09
  WS02006239           JUNCTION     0.83     1.54     8.75     0  01:52        1.52
  WS02006251           JUNCTION     0.68     1.26     8.93     0  04:50        1.18
  WS02006252           JUNCTION     0.41     0.81     9.05     0  04:50        0.71
  WS02006253           JUNCTION     0.70     1.32     8.96     0  01:50        1.22
  WS02006256           JUNCTION     1.72     2.35     9.28     0  00:00        2.35
  WS02004138           JUNCTION     0.19     0.20     7.45     0  00:00        0.19
  WS02004139           JUNCTION     0.73     0.79     5.70     0  02:01        0.79
  WS02004407           JUNCTION     0.26     0.40     6.72     0  01:52        0.40
  WS02006228           JUNCTION     0.91     1.93     8.58     0  01:52        1.92
  WS02006229           JUNCTION     0.90     2.01     8.70     0  01:52        1.99
  WS02006280           JUNCTION     0.07     0.32     8.60     0  01:51        0.30
  WS02006284           JUNCTION     0.37     0.66     9.06     0  01:54        0.66
  WS02006287           JUNCTION     0.10     0.40     9.36     0  01:54        0.40
  WSF200               JUNCTION     0.26     0.44     5.68     0  01:54        0.44
  HS02004901           JUNCTION     0.13     0.38    10.21     0  01:53        0.38
  HS02004881           JUNCTION     0.01     0.05     9.08     0  01:54        0.05
  HS02004876           JUNCTION     0.04     0.17     9.20     0  01:54        0.17
  HS02004870           JUNCTION     0.02     0.10     9.38     0  01:54        0.10
  HS02004862           JUNCTION     0.02     0.11     9.50     0  01:55        0.11
  HS02004856           JUNCTION     0.08     0.15     9.58     0  01:54        0.15
  HS02004852           JUNCTION     0.01     0.08     9.59     0  01:55        0.08
  HS02004848           JUNCTION     0.01     0.07     9.67     0  01:54        0.07
  HS02004842           JUNCTION     0.34     0.40     9.67     0  01:54        0.40
  HS02004837           JUNCTION     0.03     0.09     9.67     0  01:54        0.09
  HS02004830           JUNCTION     0.04     0.11     9.58     0  01:55        0.11
  HS02004824           JUNCTION     0.03     0.15     9.55     0  01:54        0.15
  HS02004817           JUNCTION     0.45     0.71     9.56     0  01:54        0.71
  HS02004807           JUNCTION     0.13     0.38     9.55     0  01:55        0.38
  HS02004802           JUNCTION     0.17     0.41     9.54     0  01:55        0.41
  HS02004799           JUNCTION     0.13     0.48     9.69     0  01:53        0.48
  HS02004792           JUNCTION     0.04     0.22     9.75     0  01:53        0.22
  HS02004788           JUNCTION     0.03     0.16    10.06     0  01:54        0.16
  HS02004785           JUNCTION     0.05     0.25    10.15     0  01:53        0.25
  HS02004777           JUNCTION     0.15     0.40    10.20     0  01:53        0.40
  HS02004770           JUNCTION     0.12     0.37    10.21     0  01:53        0.37
  HS02004480           JUNCTION     0.09     0.39     9.64     0  01:53        0.39
  HS02004479           JUNCTION     0.12     0.43     9.64     0  01:53        0.43
  HS02004478           JUNCTION     0.07     0.29     9.52     0  01:54        0.29
  YS02001745           JUNCTION     0.77     0.95     8.47     0  02:28        0.95
  YS02001748           JUNCTION     1.18     1.61     8.68     0  01:47        1.38
  YS02001751           JUNCTION     1.36     1.71     8.59     0  01:47        1.57
  YS02001754           JUNCTION     1.62     1.85     8.46     0  01:47        1.83
  YS02001762           JUNCTION     1.82     2.04     8.44     0  02:25        2.04
  YS02001765           JUNCTION     1.77     1.99     8.44     0  02:25        1.98
  YS02001767           JUNCTION     1.74     1.94     8.43     0  02:26        1.94
  YS02001770           JUNCTION     1.73     1.93     8.43     0  01:47        1.93
  YS02001774           JUNCTION     1.80     1.99     8.41     0  01:47        1.98
  YS02001779           JUNCTION     1.54     1.68     8.37     0  01:47        1.68
  YS02001882           JUNCTION     0.63     1.64     8.35     0  02:12        1.63
  YS02001884           JUNCTION     0.73     1.74     8.35     0  02:07        1.73
  YS02001759           JUNCTION     1.85     2.08     8.44     0  02:24        2.07
  YS02001887           JUNCTION     0.80     1.81     8.35     0  02:07        1.81
  YS02001890           JUNCTION     0.83     1.81     8.32     0  01:52        1.81
  YS02001898           JUNCTION     0.60     1.57     8.30     0  01:52        1.56
  YS02001901           JUNCTION     0.72     1.68     8.29     0  01:52        1.67
  YS02001904           JUNCTION     0.69     1.64     8.27     0  01:52        1.63
  YS02001907           JUNCTION     1.03     1.96     8.25     0  01:52        1.96
  YS02001910           JUNCTION     0.82     1.82     8.33     0  01:53        1.79
  YS02001915           JUNCTION     0.61     1.67     8.39     0  01:53        1.63
  YS02001918           JUNCTION     0.36     1.42     8.49     0  01:53        1.34
  YS02001619           JUNCTION     1.32     1.55     8.48     0  01:45        1.48
  YS02001629           JUNCTION     1.68     1.85     8.40     0  01:46        1.84
  YS02001641           JUNCTION     1.78     1.94     8.37     0  01:47        1.93
  YS02001644           JUNCTION     1.78     1.92     8.35     0  01:47        1.92
  YS02001652           JUNCTION     1.63     2.11     8.71     0  03:48        1.96
  YS02001655           JUNCTION     1.39     2.12     8.97     0  03:48        1.81
  YS02001920           JUNCTION     0.47     1.53     8.53     0  01:53        1.42
  YS02001923           JUNCTION     0.30     1.31     8.57     0  01:53        1.21
  YS02001926           JUNCTION     0.34     1.15     8.59     0  01:53        1.04
  YS02001929           JUNCTION     0.21     0.92     8.62     0  01:53        0.82
  YS02001658           JUNCTION     1.12     2.12     9.26     0  03:48        1.54
  YS02001661           JUNCTION     0.88     2.05     9.46     0  03:48        1.26
  YS02001664           JUNCTION     0.39     0.57     8.49     0  04:24        0.56
  YS02001622           JUNCTION     1.34     1.55     8.46     0  01:45        1.50
  YS02001633           JUNCTION     1.77     1.96     8.42     0  01:47        1.94
  YS02001649           JUNCTION     1.83     2.05     8.44     0  03:41        2.05
  YS02001757           JUNCTION     1.95     2.17     8.44     0  02:24        2.17
  YS02001895           JUNCTION     0.59     1.57     8.31     0  02:12        1.56
  YS02001625           JUNCTION     1.63     1.78     8.38     0  01:45        1.78
  YS02163301           JUNCTION     1.71     1.89     8.41     0  01:47        1.88
  YS02163601           JUNCTION     1.82     2.01     8.41     0  01:47        1.98
  YS02164001           JUNCTION     1.76     1.93     8.39     0  01:47        1.91
  YS02001647           JUNCTION     1.61     1.80     8.41     0  03:57        1.80
  YSB1154              JUNCTION     0.27     0.58     9.64     0  01:53        0.58
  YSB6556              JUNCTION     0.16     0.47     9.64     0  01:53        0.47
  YSB1174              JUNCTION     0.22     0.53     9.64     0  01:53        0.53
  YSB1171              JUNCTION     0.42     0.74     9.64     0  01:53        0.74
  YS02006553           JUNCTION     1.03     1.97     8.25     0  02:08        1.96
  YS02006561           JUNCTION     0.37     1.08     7.74     0  02:08        1.07
  YS02006556           JUNCTION     0.99     1.93     8.24     0  02:07        1.93
  YS02006558           JUNCTION     1.03     1.98     8.25     0  02:13        1.97
  YS02001783           JUNCTION     0.59     1.46     7.61     0  02:12        1.46
  YS02001784           JUNCTION     0.60     1.41     7.47     0  02:15        1.40
  YS02001786           JUNCTION     0.53     1.24     7.27     0  02:16        1.24
  YS02001788           JUNCTION     0.45     1.10     7.08     0  02:09        1.10
  YS02001790           JUNCTION     0.57     1.96     7.60     0  04:30        1.26
  YS02001791           JUNCTION     0.53     2.26     7.73     0  05:53        1.23
  YS02001793           JUNCTION     0.73     2.52     7.36     0  04:28        1.78
  WSC                  OUTFALL      0.37     0.48     1.15     0  02:02        0.48
  JK-storage           STORAGE      3.10     5.80     6.60     0  04:31        5.80
  CC-storage           STORAGE      1.20     1.42     8.42     0  03:00        1.42
  XR-storage           STORAGE      7.13     7.72     5.72     0  02:07        7.72
  
  
  *******************
  Node Inflow Summary
  *******************
  
  -------------------------------------------------------------------------------------------------
                                  Maximum  Maximum                  Lateral       Total        Flow
                                  Lateral    Total  Time of Max      Inflow      Inflow     Balance
                                   Inflow   Inflow   Occurrence      Volume      Volume       Error
  Node                 Type           LPS      LPS  days hr:min    10^6 ltr    10^6 ltr     Percent
  -------------------------------------------------------------------------------------------------
  WS02001211           JUNCTION      7.35   389.96     0  02:26       0.207        10.3       0.392
  WS02001212           JUNCTION      0.00   392.53     0  02:26           0        10.3       0.237
  WS02001213           JUNCTION      0.00   394.64     0  02:25           0        10.2       0.278
  WS02003069           JUNCTION      0.32  1346.67     0  02:00     0.00902        22.4       0.156
  WS02003072           JUNCTION      0.00  1346.72     0  02:01           0        22.3       0.187
  WS02003073           JUNCTION      1.82  1348.56     0  02:01      0.0514        22.4       0.215
  WS02003060           JUNCTION     16.53  1346.41     0  02:00       0.466        22.4       0.146
  WS02003066           JUNCTION      0.00   956.84     0  01:55           0        11.8       0.038
  WS02003059           JUNCTION      0.00   397.10     0  04:30           0        10.2       0.392
  WS02003067           JUNCTION      0.00   956.62     0  01:54           0        11.8       0.080
  WS02004401           JUNCTION      0.00   968.35     0  01:52           0          12       0.168
  WS02004402           JUNCTION      0.00   968.41     0  01:52           0          12       0.160
  WS02004403           JUNCTION      0.00   969.25     0  01:52           0          12       0.146
  WS02004404           JUNCTION      0.16   969.51     0  01:52     0.00457        11.9       0.111
  WS02004406           JUNCTION      0.00   970.76     0  01:52           0        11.9       0.271
  WS02004409           JUNCTION      0.00   968.40     0  01:52           0        11.9       0.135
  WS02004410           JUNCTION      0.00   956.61     0  01:53           0        11.9       0.153
  WS02004411           JUNCTION      0.00   954.55     0  01:54           0        11.8       0.158
  WS02004412           JUNCTION      0.00   956.10     0  01:54           0        11.8       0.171
  WS02004413           JUNCTION      0.00   956.42     0  01:54           0        11.8       0.255
  WS02004405           JUNCTION      0.04   970.95     0  01:52     0.00107        11.9       0.166
  WS02006109           JUNCTION      1.23   935.90     0  01:53      0.0347          12       0.157
  WS02006110           JUNCTION      0.00   936.04     0  01:53           0          12       0.144
  WS02006111           JUNCTION      0.00   936.14     0  01:53           0          12       0.027
  WS02006112           JUNCTION     30.57   966.74     0  01:52       0.112        12.1       0.240
  WS02006113           JUNCTION      0.00   935.67     0  01:53           0          12       0.076
  WS02006115           JUNCTION      0.00   966.83     0  01:52           0          12       0.157
  WS02006116           JUNCTION      0.00   968.33     0  01:52           0          12       0.134
  WS02006230           JUNCTION     10.28   532.76     0  06:35        0.29        8.91       0.147
  WS02006231           JUNCTION      0.00   522.43     0  06:38           0        8.63       0.090
  WS02006232           JUNCTION      0.00   522.49     0  06:36           0        8.63       0.175
  WS02006234           JUNCTION      0.00   522.90     0  06:36           0        8.64       0.076
  WS02006235           JUNCTION      0.00   523.68     0  06:35           0        8.72       0.103
  WS02006238           JUNCTION      0.00   353.28     0  07:32           0        5.47       0.110
  WS02006240           JUNCTION      0.00   358.97     0  07:31           0        5.43       0.190
  WS02006242           JUNCTION      0.00   363.40     0  07:31           0        5.42       0.243
  WS02006243           JUNCTION      0.00   368.52     0  07:31           0        5.39       0.059
  WS02006245           JUNCTION      0.00   372.79     0  06:01           0        5.39       0.208
  WS02006247           JUNCTION      0.00   377.06     0  06:00           0        5.38       0.126
  WS02006248           JUNCTION      0.00   381.56     0  06:00           0        5.41       0.079
  WS02006249           JUNCTION      0.00   468.25     0  02:30           0        6.07       0.165
  WS02006239           JUNCTION      0.00   354.71     0  07:32           0        5.45       0.052
  WS02006251           JUNCTION      0.08   466.39     0  02:30     0.00217        6.12       0.124
  WS02006252           JUNCTION      0.00   400.00     0  02:30           0        5.46       0.007
  WS02006253           JUNCTION      3.87   156.77     0  01:54      0.0129       0.661       0.461
  WS02006256           JUNCTION      0.00   983.00     0  01:50           0        12.2      -0.009
  WS02004138           JUNCTION      0.00   380.00     0  00:00           0        10.1       0.063
  WS02004139           JUNCTION      0.32   395.85     0  00:00     0.00905        10.1       0.448
  WS02004407           JUNCTION      0.00   971.27     0  01:52           0        11.9       0.059
  WS02006228           JUNCTION      0.00   934.66     0  01:52           0          12       0.119
  WS02006229           JUNCTION      0.00   984.08     0  01:51           0          12       0.114
  WS02006280           JUNCTION      0.00   736.11     0  01:54           0        3.11       0.013
  WS02006284           JUNCTION      0.10   735.84     0  01:54      0.0027        3.11       0.019
  WS02006287           JUNCTION      0.00   735.63     0  01:54           0        3.11       0.024
  WSF200               JUNCTION      0.00   957.00     0  01:55           0        11.8       0.036
  HS02004901           JUNCTION     37.34    37.34     0  01:51       0.136       0.136       1.311
  HS02004881           JUNCTION     14.85   153.29     0  01:54       0.053       0.601       0.104
  HS02004876           JUNCTION     26.74   139.06     0  01:54       0.103       0.549       0.099
  HS02004870           JUNCTION     27.42   112.65     0  01:54         0.1       0.446       0.025
  HS02004862           JUNCTION     26.01    86.18     0  01:54       0.116       0.346       0.050
  HS02004856           JUNCTION     20.52    60.23     0  01:54      0.0756       0.231       0.629
  HS02004852           JUNCTION      0.00    40.37     0  01:54           0       0.155       0.036
  HS02004848           JUNCTION     56.97    56.97     0  01:56       0.261       0.261       0.018
  HS02004842           JUNCTION      0.00    18.18     0  02:06           0       0.119      12.306
  HS02004837           JUNCTION     52.39    67.87     0  01:54       0.353       0.459       0.177
  HS02004830           JUNCTION      0.15    67.98     0  01:54     0.00423       0.449       0.275
  HS02004824           JUNCTION     66.79   134.68     0  01:56       0.318       0.767       0.071
  HS02004817           JUNCTION      0.60   136.80     0  01:57      0.0169       0.783       2.175
  HS02004807           JUNCTION     50.62   183.90     0  01:55       0.184       0.952       0.460
  HS02004802           JUNCTION      0.00   183.88     0  01:56           0        0.95       0.417
  HS02004799           JUNCTION     40.40   470.76     0  01:53        0.15        1.87       0.160
  HS02004792           JUNCTION    183.39   430.98     0  01:53       0.729        1.72       0.024
  HS02004788           JUNCTION     59.53   248.80     0  01:53       0.273       0.991       0.039
  HS02004785           JUNCTION      0.15   189.56     0  01:53     0.00423        0.72       0.070
  HS02004777           JUNCTION      0.03   189.72     0  01:52    0.000846        0.72       0.728
  HS02004770           JUNCTION    153.57   190.38     0  01:52       0.587       0.722       0.429
  HS02004480           JUNCTION      0.00   554.34     0  01:53           0        2.18       0.044
  HS02004479           JUNCTION      0.00    83.76     0  01:53           0       0.323       0.229
  HS02004478           JUNCTION      0.00   735.58     0  01:54           0        3.11       0.010
  YS02001745           JUNCTION    446.25   446.25     0  02:16        3.95        3.95       0.256
  YS02001748           JUNCTION      0.04   450.31     0  02:16     0.00127        3.95       0.581
  YS02001751           JUNCTION      0.01   450.48     0  02:16     0.00031        3.92       0.610
  YS02001754           JUNCTION      0.26   450.30     0  02:16     0.00733        3.91       0.626
  YS02001762           JUNCTION      0.00   434.75     0  01:55           0        2.26       0.942
  YS02001765           JUNCTION      0.00   434.62     0  01:55           0        2.26       1.074
  YS02001767           JUNCTION      0.54   434.78     0  01:55      0.0151        2.29       1.572
  YS02001770           JUNCTION    558.16   714.74     0  02:29        4.36        5.12       0.608
  YS02001774           JUNCTION      0.00   714.86     0  02:29           0        3.59       0.691
  YS02001779           JUNCTION      0.01   714.91     0  02:29    0.000141        3.56       0.436
  YS02001882           JUNCTION      0.00    27.30     0  01:49           0      0.0175      15.442
  YS02001884           JUNCTION      0.00    45.57     0  01:48           0      0.0543      13.320
  YS02001759           JUNCTION    542.57   878.30     0  01:57        4.04        5.51       0.411
  YS02001887           JUNCTION    676.21   677.43     0  02:12        4.57         4.6       0.191
  YS02001890           JUNCTION      0.00   677.23     0  02:12           0        4.55       0.210
  YS02001898           JUNCTION      0.00   539.35     0  01:52           0        4.27       0.076
  YS02001901           JUNCTION      0.00   538.38     0  01:51           0        4.27       0.168
  YS02001904           JUNCTION      0.00   540.07     0  01:51           0        4.26       0.153
  YS02001907           JUNCTION      0.00  1180.30     0  01:54           0        9.98       0.249
  YS02001910           JUNCTION      0.00   659.58     0  01:54           0        5.72       0.214
  YS02001915           JUNCTION    394.70   658.95     0  01:54        3.28        5.77       0.110
  YS02001918           JUNCTION      0.00   361.75     0  01:54           0        2.52       0.082
  YS02001619           JUNCTION    388.44   388.44     0  02:16         3.3         3.3       0.367
  YS02001629           JUNCTION      0.00   219.50     0  01:48           0        1.43       2.036
  YS02001641           JUNCTION      0.00   455.44     0  01:48           0         5.1       0.408
  YS02001644           JUNCTION    424.99  1551.02     0  02:29        3.82        13.5       0.194
  YS02001652           JUNCTION      0.00   515.97     0  02:08           0        3.45       0.657
  YS02001655           JUNCTION      0.15   515.01     0  02:08     0.00434        3.47       0.730
  YS02001920           JUNCTION      2.87   360.70     0  01:54      0.0809         2.5       0.126
  YS02001923           JUNCTION      0.04   298.15     0  01:54     0.00106         2.4       0.043
  YS02001926           JUNCTION      0.05   239.88     0  01:54     0.00147        2.38       0.126
  YS02001929           JUNCTION    206.66   206.66     0  03:01        2.37        2.37       0.022
  YS02001658           JUNCTION      0.00   522.66     0  02:02           0        3.49       0.693
  YS02001661           JUNCTION      0.00   746.93     0  01:59           0        3.87      -0.261
  YS02001664           JUNCTION    496.40   496.40     0  02:16        3.49        3.87       0.132
  YS02001622           JUNCTION      0.00   388.84     0  02:16           0        3.29       0.971
  YS02001633           JUNCTION    431.52   456.73     0  01:48        3.93        5.24       0.609
  YS02001649           JUNCTION      0.00  1001.61     0  01:49           0        7.26       0.505
  YS02001757           JUNCTION      0.00  2148.83     0  01:55           0        11.2       0.816
  YS02001895           JUNCTION      0.00   538.86     0  01:52           0        4.27       0.129
  YS02001625           JUNCTION      0.00   436.35     0  02:15           0        3.34       1.187
  YS02163301           JUNCTION      0.00   221.85     0  01:45           0        1.42       1.700
  YS02163601           JUNCTION      0.11   456.07     0  01:48      0.0031        5.11       0.594
  YS02164001           JUNCTION      0.00   456.44     0  01:48           0        5.09       0.389
  YS02001647           JUNCTION      0.00   772.58     0  02:29           0        6.28       0.451
  YSB1154              JUNCTION     46.91    46.91     0  01:52        0.18       0.181       0.806
  YSB6556              JUNCTION      0.00    46.64     0  01:52           0       0.182       0.696
  YSB1174              JUNCTION     39.22    39.22     0  01:50       0.134       0.134       0.962
  YSB1171              JUNCTION      0.00    84.02     0  01:52           0       0.322       2.011
  YS02006553           JUNCTION      0.00   716.09     0  03:35           0        7.35       0.216
  YS02006561           JUNCTION      0.00  1083.67     0  01:52           0        11.5       0.009
  YS02006556           JUNCTION      0.00   716.70     0  03:35           0        7.35       0.156
  YS02006558           JUNCTION    590.63  1084.40     0  01:52        4.24        11.6       0.044
  YS02001783           JUNCTION      0.00  1063.77     0  01:52           0        11.5       0.022
  YS02001784           JUNCTION      1.06  1065.88     0  01:52      0.0299        11.6       0.033
  YS02001786           JUNCTION      0.06  1065.98     0  01:52     0.00159        11.6       0.032
  YS02001788           JUNCTION      0.07  1066.63     0  01:52       0.002        11.6       0.019
  YS02001790           JUNCTION      0.15  1060.39     0  01:52     0.00437        11.6       0.018
  YS02001791           JUNCTION      0.00  1059.85     0  01:52           0        11.6       0.013
  YS02001793           JUNCTION      0.00  1059.94     0  01:53           0        11.6       0.051
  WSC                  OUTFALL       0.00  1349.19     0  02:02           0        22.3       0.000
  JK-storage           STORAGE       0.00  1059.56     0  01:52           0        11.7      -8.421
  CC-storage           STORAGE       0.00  2149.91     0  01:55           0        8.95       0.691
  XR-storage           STORAGE    1054.62  1054.62     0  03:01        15.5        16.1       0.001
  
  
  **********************
  Node Surcharge Summary
  **********************
  
  Surcharging occurs when water rises above the top of the highest conduit.
  ---------------------------------------------------------------------
                                               Max. Height   Min. Depth
                                   Hours       Above Crown    Below Rim
  Node                 Type      Surcharged         Meters       Meters
  ---------------------------------------------------------------------
  WS02004401           JUNCTION        1.37          0.307        1.353
  WS02004402           JUNCTION        1.41          0.289        1.451
  WS02004403           JUNCTION        1.43          0.265        1.765
  WS02004404           JUNCTION        1.68          0.308        2.472
  WS02004406           JUNCTION        1.56          0.203        2.247
  WS02004413           JUNCTION        0.44          0.031        2.169
  WS02004405           JUNCTION        1.58          0.277        2.523
  WS02006109           JUNCTION        4.56          1.010        0.810
  WS02006110           JUNCTION        3.48          0.952        0.898
  WS02006111           JUNCTION        0.35          0.285        1.585
  WS02006112           JUNCTION        3.92          0.671        1.009
  WS02006113           JUNCTION        0.38          0.724        1.206
  WS02006115           JUNCTION        0.78          0.312        1.938
  WS02006116           JUNCTION        0.84          0.291        1.999
  WS02006230           JUNCTION        3.25          0.894        0.676
  WS02006231           JUNCTION        3.83          0.895        0.635
  WS02006232           JUNCTION        4.53          1.005        0.475
  WS02006234           JUNCTION        4.35          0.870        0.370
  WS02006235           JUNCTION        4.42          0.888        0.402
  WS02006238           JUNCTION        4.45          0.893        0.537
  WS02006240           JUNCTION        4.31          0.733        0.657
  WS02006242           JUNCTION        4.37          0.727        0.093
  WS02006243           JUNCTION        4.18          0.592        0.178
  WS02006245           JUNCTION        4.03          0.512        0.338
  WS02006247           JUNCTION        4.05          0.495        0.265
  WS02006248           JUNCTION        3.69          0.380        0.000
  WS02006249           JUNCTION        3.77          0.390        0.000
  WS02006239           JUNCTION        4.36          0.796        0.494
  WS02006251           JUNCTION        2.18          0.225        0.955
  WS02006252           JUNCTION        4.02          0.412        0.688
  WS02006253           JUNCTION        2.45          0.278        2.202
  WS02006256           JUNCTION        6.97          2.050        0.000
  WS02006228           JUNCTION        4.55          1.099        1.101
  HS02004817           JUNCTION        0.15          0.010        1.730
  YS02001748           JUNCTION        6.04          0.527        0.663
  YS02001751           JUNCTION        6.08          0.712        0.488
  YS02001754           JUNCTION        6.14          0.803        0.347
  YS02001762           JUNCTION        6.19          1.038        0.112
  YS02001765           JUNCTION        6.18          0.986        0.114
  YS02001767           JUNCTION        6.18          0.944        0.086
  YS02001770           JUNCTION        6.18          0.903        0.017
  YS02001774           JUNCTION        6.19          0.992        0.058
  YS02001779           JUNCTION        6.13          0.680        0.000
  YS02001882           JUNCTION        1.79          0.638        0.192
  YS02001884           JUNCTION        1.80          0.678        0.192
  YS02001759           JUNCTION        6.20          1.077        0.133
  YS02001887           JUNCTION        1.86          0.764        0.186
  YS02001890           JUNCTION        1.88          0.760        0.000
  YS02001898           JUNCTION        1.75          0.535        0.205
  YS02001901           JUNCTION        1.83          0.677        0.193
  YS02001904           JUNCTION        1.81          0.640        0.210
  YS02001907           JUNCTION        2.40          0.950        0.000
  YS02001910           JUNCTION        1.92          0.819        0.281
  YS02001915           JUNCTION        1.77          0.672        0.328
  YS02001918           JUNCTION        1.62          0.423        0.387
  YS02001619           JUNCTION        6.09          0.551        0.059
  YS02001629           JUNCTION        6.08          0.470        0.000
  YS02001641           JUNCTION        6.18          0.937        0.163
  YS02001644           JUNCTION        6.18          0.920        0.000
  YS02001652           JUNCTION        6.15          1.083        0.047
  YS02001655           JUNCTION        6.10          1.123        0.077
  YS02001920           JUNCTION        1.65          0.526        0.614
  YS02001923           JUNCTION        0.01          0.096        0.724
  YS02001926           JUNCTION        0.01          0.146        0.754
  YS02001658           JUNCTION        6.05          1.121        0.179
  YS02001661           JUNCTION        0.17          0.982        0.408
  YS02001622           JUNCTION        6.10          0.552        0.068
  YS02001633           JUNCTION        6.17          0.942        0.118
  YS02001649           JUNCTION        6.19          1.050        0.000
  YS02001757           JUNCTION        6.23          1.175        0.035
  YS02001895           JUNCTION        1.77          0.567        0.183
  YS02001625           JUNCTION        6.15          0.780        0.000
  YS02163301           JUNCTION        6.17          0.894        0.136
  YS02163601           JUNCTION        6.20          1.008        0.072
  YS02164001           JUNCTION        6.17          0.932        0.168
  YS02001647           JUNCTION        6.15          0.801        0.099
  YS02006553           JUNCTION        2.46          0.971        0.219
  YS02006561           JUNCTION        1.64          0.280        0.870
  YS02006556           JUNCTION        2.10          0.894        0.456
  YS02006558           JUNCTION        2.07          0.878        0.522
  YS02001783           JUNCTION        1.88          0.664        0.936
  YS02001784           JUNCTION        1.86          0.605        0.885
  YS02001786           JUNCTION        1.77          0.443        0.987
  YS02001788           JUNCTION        1.68          0.304        1.176
  YS02001790           JUNCTION        2.38          1.157        0.000
  YS02001791           JUNCTION        2.46          1.465        0.455
  YS02001793           JUNCTION        2.73          1.524        1.076
  
  
  *********************
  Node Flooding Summary
  *********************
  
  Flooding refers to all water that overflows a node, whether it ponds or not.
  --------------------------------------------------------------------------
                                                             Total   Maximum
                                 Maximum   Time of Max       Flood    Ponded
                        Hours       Rate    Occurrence      Volume     Depth
  Node                 Flooded       LPS   days hr:min    10^6 ltr    Meters
  --------------------------------------------------------------------------
  WS02006248              0.22     60.82      0  01:53       0.024     0.000
  WS02006249              2.27    222.96      0  02:30       0.652     0.000
  WS02006256              4.52    838.49      0  01:52       8.881     0.000
  YS02001779              3.38    714.91      0  02:29       3.539     0.000
  YS02001890              0.78    161.14      0  02:13       0.270     0.000
  YS02001907              1.50    716.78      0  02:15       2.618     0.000
  YS02001629              0.01     16.14      0  01:46       0.000     0.000
  YS02001644              4.50   1551.01      0  02:29      11.748     0.000
  YS02001649              0.02     33.89      0  03:49       0.001     0.000
  YS02001625              2.16    436.05      0  02:15       1.966     0.000
  YS02001790              0.01    225.00      0  04:30       0.000     0.000
  JK-storage              0.37    474.98      0  04:33       0.329     0.000
  XR-storage              4.67    674.59      0  03:01       5.097     0.000
  
  
  **********************
  Storage Volume Summary
  **********************
  
  --------------------------------------------------------------------------------------------------
                         Average     Avg  Evap Exfil       Maximum     Max    Time of Max    Maximum
                          Volume    Pcnt  Pcnt  Pcnt        Volume    Pcnt     Occurrence    Outflow
  Storage Unit           1000 m3    Full  Loss  Loss       1000 m3    Full    days hr:min        LPS
  --------------------------------------------------------------------------------------------------
  JK-storage               0.156      53     0     0         0.291     100       0  04:31     983.00
  CC-storage               3.357      21     0     0         3.960      25       0  03:00     400.00
  XR-storage               0.856      92     0     0         0.926     100       0  02:07     380.00
  
  
  ***********************
  Outfall Loading Summary
  ***********************
  
  ---------------------------------------------------------------------------------------------------------------------------------
                         Flow       Avg       Max       Total         Total         Total         Total         Total         Total
                         Freq      Flow      Flow      Volume           COD            SS            TN            TP         NH4-N
  Outfall Node           Pcnt       LPS       LPS    10^6 ltr            kg            kg            kg            kg            kg
  ---------------------------------------------------------------------------------------------------------------------------------
  WSC                   99.98    851.27   1349.19      22.305      2701.724      4835.427       144.897        16.479        86.132
  ---------------------------------------------------------------------------------------------------------------------------------
  System                99.98    851.27   1349.19      22.305      2701.724      4835.427       144.897        16.479        86.132
  
  
  ********************
  Link Flow Summary
  ********************
  
  -----------------------------------------------------------------------------
                                 Maximum  Time of Max   Maximum    Max/    Max/
                                  |Flow|   Occurrence   |Veloc|    Full    Full
  Link                 Type          LPS  days hr:min     m/sec    Flow   Depth
  -----------------------------------------------------------------------------
  WS02003066WSF200     CONDUIT    957.00     0  01:55      3.01    0.16    0.32
  WS02006287WS02006284 CONDUIT    735.75     0  01:54      2.45    0.34    0.41
  WS02006284WS02006280 CONDUIT    736.11     0  01:54      2.68    0.31    0.38
  WS02006280WS02006229 CONDUIT    736.22     0  01:54      4.16    0.16    0.57
  WS02006229WS02006228 CONDUIT    934.66     0  01:52      1.86    3.10    1.00
  WS02006256WS02006235 CONDUIT    288.92     0  00:00      4.23    3.06    1.00
  WS02006253WS02006251 CONDUIT    167.59     0  01:51      0.72    0.50    1.00
  WS02006252WS02006251 CONDUIT    404.71     0  04:50      3.22    1.49    1.00
  WS02006251WS02006249 CONDUIT    468.25     0  02:30      1.22    1.35    1.00
  WS02006249WS02006248 CONDUIT    381.56     0  06:00      1.14    2.09    1.00
  WS02006248WS02006247 CONDUIT    377.06     0  06:00      1.11    0.82    1.00
  WS02006247WS02006245 CONDUIT    372.79     0  06:01      1.08    2.96    1.00
  WS02006245WS02006243 CONDUIT    368.52     0  07:31      1.10    1.09    1.00
  WS02006243WS02006242 CONDUIT    363.40     0  07:31      1.01    0.78    1.00
  WS02006242WS02006240 CONDUIT    358.97     0  07:31      0.97    1.43    1.00
  WS02006240WS02006239 CONDUIT    354.71     0  07:32      1.00    1.12    1.00
  WS02006239WS02006238 CONDUIT    353.28     0  07:32      0.95    1.13    1.00
  WS02006238WS02006235 CONDUIT    352.94     0  07:32      1.45    0.79    1.00
  WS02006235WS02006234 CONDUIT    522.90     0  06:36      1.36    5.52    1.00
  WS02006234WS02006232 CONDUIT    522.49     0  06:36      1.39    1.06    1.00
  WS02006232WS02006231 CONDUIT    522.43     0  06:38      1.36    1.09    1.00
  WS02006231WS02006230 CONDUIT    522.48     0  06:35      1.36    7.93    1.00
  WS02006230WS02006229 CONDUIT    532.75     0  06:59      1.38   11.86    1.00
  WS02006228WS02006109 CONDUIT    934.67     0  01:53      1.86    4.08    1.00
  WS02006116WS02004401 CONDUIT    968.35     0  01:52      1.23    1.33    1.00
  WS02006115WS02006116 CONDUIT    968.33     0  01:52      1.23    1.24    1.00
  WS02006113WS02006111 CONDUIT    936.14     0  01:53      2.64    1.12    1.00
  WS02006112WS02006115 CONDUIT    966.83     0  01:52      1.23    0.57    1.00
  WS02006111WS02006112 CONDUIT    936.47     0  01:52      1.86    0.45    1.00
  WS02006110WS02006113 CONDUIT    935.67     0  01:53      1.86    0.85    1.00
  WS02006109WS02006110 CONDUIT    936.04     0  01:53      1.86    1.80    1.00
  WS02004411WS02004412 CONDUIT    956.10     0  01:54      1.26    1.36    0.93
  WS02004401WS02004402 CONDUIT    968.41     0  01:52      1.23    1.16    1.00
  WS02004413WS02003067 CONDUIT    956.62     0  01:54      1.57    0.41    0.72
  WS02004412WS02004413 CONDUIT    956.42     0  01:54      1.24    0.64    0.96
  WS02004410WS02004411 CONDUIT    954.55     0  01:54      1.24    1.30    0.95
  WS02004409WS02004410 CONDUIT    956.61     0  01:53      1.24    1.24    0.97
  WS02004407WS02004409 CONDUIT    968.40     0  01:52      1.73    0.34    0.69
  WS02004406WS02004407 CONDUIT    971.27     0  01:52      1.65    0.43    0.70
  WS02004405WS02004406 CONDUIT    970.76     0  01:52      1.24    1.91    1.00
  WS02004404WS02004405 CONDUIT    970.91     0  01:52      1.24    9.51    1.00
  WS02004403WS02004404 CONDUIT    969.34     0  01:52      1.23    0.70    1.00
  WS02004402WS02004403 CONDUIT    969.25     0  01:52      1.23    1.39    1.00
  WS02004139WS02001211 CONDUIT    382.61     0  02:26      0.90    0.48    0.64
  WS02004138WS02004139 CONDUIT    395.52     0  00:00      3.64    0.08    0.47
  WS02003067WS02003066 CONDUIT    956.84     0  01:55      1.67    0.31    0.51
  WS02001213WS02003059 CONDUIT    397.10     0  04:30      0.89    0.66    0.88
  WS02001212WS02001213 CONDUIT    394.64     0  02:25      1.32    0.61    0.56
  WS02001211WS02001212 CONDUIT    392.53     0  02:26      0.78    0.30    0.72
  WS02003072WS02003073 CONDUIT   1346.74     0  02:01      1.97    2.91    0.58
  WS02003069WS02003072 CONDUIT   1346.72     0  02:01      1.82    0.65    0.62
  WS02003060WS02003069 CONDUIT   1346.35     0  02:00      2.03    0.53    0.57
  WS02003059WS02003060 CONDUIT    401.83     0  04:29      0.95    0.26    0.78
  HS02004901HS02004770 CONDUIT     36.85     0  01:52      0.10    0.14    0.54
  HS02004876HS02004881 CONDUIT    139.08     0  01:54      1.26    1.48    0.16
  HS02004870HS02004876 CONDUIT    112.62     0  01:54      0.85    0.07    0.19
  HS02004842HS02004848 CONDUIT     18.18     0  02:06      0.08    0.01    0.34
  HS02004837HS02004842 CONDUIT     18.64     0  02:07      0.42    0.01    0.35
  HS02004830HS02004837 CONDUIT     67.83     0  01:54      0.68    0.07    0.14
  HS02004824HS02004830 CONDUIT     68.05     0  01:56      0.62    0.09    0.18
  HS02004817HS02004824 CONDUIT    136.20     0  01:57      0.32    0.06    0.60
  HS02004770HS02004777 CONDUIT    189.69     0  01:52      0.49    0.35    0.55
  HS02004799HS02004480 CONDUIT    470.63     0  01:53      1.09    0.59    0.62
  HS02004792HS02004799 CONDUIT    430.88     0  01:53      1.22    0.26    0.50
  HS02004788HS02004792 CONDUIT    248.73     0  01:54      1.29    0.16    0.28
  HS02004785HS02004788 CONDUIT    189.53     0  01:53      0.92    1.43    0.30
  HS02004777HS02004785 CONDUIT    189.41     0  01:53      0.59    0.23    0.46
  HS02004480HS02004478 CONDUIT    554.38     0  01:53      1.59    2.33    0.50
  HS02004479HS02004480 CONDUIT     83.72     0  01:53      0.37    0.08    0.59
  HS02004862HS02004870 CONDUIT     86.18     0  01:55      0.82    0.09    0.15
  HS02004848HS02004852 CONDUIT     40.37     0  01:54      0.54    0.05    0.11
  HS02004856HS02004862 CONDUIT     60.18     0  01:54      0.61    0.06    0.14
  HS02004852HS02004856 CONDUIT     40.43     0  01:55      0.35    0.05    0.17
  HS02004802HS02004478 CONDUIT    184.69     0  01:57      0.53    0.16    0.50
  HS02004478WS02006287 CONDUIT    735.63     0  01:54      2.18    0.21    0.38
  HS02004817HS02004807 CONDUIT    136.98     0  01:57      0.26    0.08    0.77
  HS02004807HS02004802 CONDUIT    183.88     0  01:56      0.47    0.35    0.56
  YS02001759YS02001757 CONDUIT    878.72     0  01:57      1.12    0.62    1.00
  YS02001762YS02001759 CONDUIT    434.90     0  01:55      0.55    0.50    1.00
  YS02001765YS02001762 CONDUIT    434.75     0  01:55      0.55    0.41    1.00
  YS02001770YS02001767 CONDUIT    434.24     0  01:55      0.55    1.72    1.00
  YS02001774YS02001770 CONDUIT    714.86     0  02:29      0.91    0.46    1.00
  YS02001779YS02001774 CONDUIT    714.91     0  02:29      0.91    0.36    1.00
  YS02001649YS02001757 CONDUIT   1000.80     0  01:49      1.27    0.61    1.00
  YS02001767YS02001765 CONDUIT    434.62     0  01:55      0.55    0.55    1.00
  YS02006561YS02001783 CONDUIT   1063.77     0  01:52      2.15    0.55    1.00
  YS02001783YS02001784 CONDUIT   1064.82     0  01:52      2.12    1.47    1.00
  YS02001784YS02001785 CONDUIT   1065.93     0  01:52      2.12    2.48    1.00
  YS02001788YS02001790 CONDUIT   1060.24     0  01:52      2.44    0.78    1.00
  YS02001790YS02001791 CONDUIT   1059.85     0  01:52      2.91    1.15    1.00
  YS02001791YS02001793 CONDUIT   1059.94     0  01:53      5.78    0.46    1.00
  YS02001910YS02001907 CONDUIT    659.99     0  01:54      0.84    0.37    1.00
  YS02001786YS02001788 CONDUIT   1066.56     0  01:52      2.31    2.06    1.00
  YS02001915YS02001910 CONDUIT    659.58     0  01:54      0.84    0.33    1.00
  YS02001918YS02001915 CONDUIT    363.10     0  01:54      0.50    0.20    1.00
  YS02001923YS02001920 CONDUIT    357.83     0  01:54      0.82    0.16    1.00
  YS02001926YS02001923 CONDUIT    298.11     0  01:54      0.92    0.43    1.00
  YS02001929YS02001926 CONDUIT    239.83     0  01:54      0.98    0.11    0.96
  YS02001920YS02001918 CONDUIT    361.75     0  01:54      0.77    0.35    1.00
  YS02001629YS02163301 CONDUIT    221.85     0  01:45      0.28    0.27    1.00
  YS02001619YS02001622 CONDUIT    388.84     0  02:16      0.74    0.57    1.00
  YS02001622YS02001625 CONDUIT    388.80     0  02:16      0.50    0.21    1.00
  YS02001625YS02001629 CONDUIT    219.50     0  01:48      0.29    0.10    1.00
  YS02163301YS02001633 CONDUIT    223.59     0  01:45      0.28    0.21    1.00
  YS02163601YS02164001 CONDUIT    456.44     0  01:48      0.58    0.40    1.00
  YS02164001YS02001641 CONDUIT    455.44     0  01:48      0.58    0.62    1.00
  YS02001641YS02001644 CONDUIT    455.23     0  01:48      0.58    1.47    1.00
  YS02001647YS02001649 CONDUIT    772.58     0  02:29      0.98    0.41    1.00
  YS02006553YS02006556 CONDUIT    716.70     0  03:35      0.91    0.61    1.00
  YS02006556YS02006558 CONDUIT    717.24     0  03:35      0.91    0.57    1.00
  YSB6556YSB1171       CONDUIT     46.62     0  01:54      0.14    0.05    0.84
  YS02001907YS02006553 CONDUIT    716.09     0  03:35      0.80    0.84    1.00
  YS02006558YS02006561 CONDUIT   1083.67     0  01:52      3.83    2.40    1.00
  YS02001633YS02163601 CONDUIT    455.96     0  01:48      0.58    0.48    1.00
  YS02001644YS02001647 CONDUIT    772.69     0  02:29      0.98    0.45    1.00
  YS02001745YS02001748 CONDUIT    450.27     0  02:16      1.67    0.17    0.98
  YS02001748YS02001751 CONDUIT    450.46     0  02:16      1.21    0.23    1.00
  YS02001751YS02001754 CONDUIT    450.04     0  02:16      1.02    0.22    1.00
  YS02001754YS02001757 CONDUIT    449.85     0  02:16      0.57    0.18    1.00
  YS02001882YS02001884 CONDUIT     27.30     0  01:49      0.16    0.03    1.00
  YS02001884YS02001887 CONDUIT     45.57     0  01:48      0.12    0.06    1.00
  YS02001890YS02001895 CONDUIT    538.86     0  01:52      0.69    0.25    1.00
  YS02001895YS02001898 CONDUIT    539.35     0  01:52      0.69    0.94    1.00
  YS02001898YS02001901 CONDUIT    538.38     0  01:51      0.69    0.35    1.00
  YS02001901YS02001904 CONDUIT    540.07     0  01:51      0.69    0.84    1.00
  YS02001904YS02001907 CONDUIT    542.90     0  01:51      0.69    0.19    1.00
  YS02001887YS02001890 CONDUIT    677.23     0  02:12      0.86    1.16    1.00
  YS02001652YS02001649 CONDUIT    517.73     0  02:10      0.71    0.26    1.00
  YS02001655YS02001652 CONDUIT    515.97     0  02:08      1.09    0.25    1.00
  YS02001658YS02001655 CONDUIT    514.86     0  02:08      1.41    0.22    1.00
  YS02001661YS02001658 CONDUIT    522.66     0  02:02      1.78    0.21    1.00
  YS02001664YS02001661 CONDUIT    746.93     0  01:59      1.69    0.23    0.76
  YSB1154YSB6556       CONDUIT     46.64     0  01:52      0.16    0.08    0.75
  YSB1174YSB1171       CONDUIT     38.37     0  01:50      0.11    0.06    0.87
  YSB1171HS02004479    CONDUIT     83.76     0  01:53      0.54    0.06    0.70
  HS02004881HS02006253 CONDUIT    153.29     0  01:54      2.62    0.03    0.54
  YS02001793JiankangQianchi CONDUIT   1059.56     0  01:52     16.64    0.08    1.00
  YS02001757CaochengTiaoxuchi CONDUIT   2149.91     0  01:55      3.55    0.94    1.00
  WSF200WS02003060     CONDUIT    957.00     0  01:55      1.98    0.21    0.45
  1                    CONDUIT   1349.19     0  02:02      3.60    0.47    0.48
  CC-Pump-1            PUMP       200.00     0  02:30              1.00
  CC-Pump-2            PUMP       200.00     0  02:30              1.00
  JK-Pump-1            PUMP       300.00     0  00:00              1.00
  JK-Pump-2            PUMP       683.00     0  01:50              1.00
  XR-Pump-1            PUMP        95.00     0  00:00              1.00
  XR-Pump-2            PUMP        95.00     0  00:00              1.00
  XR-Pump-3            PUMP        95.00     0  00:00              1.00
  XR-Pump-4            PUMP        95.00     0  00:00              1.00
  
  
  ***************************
  Flow Classification Summary
  ***************************
  
  -------------------------------------------------------------------------------------
                      Adjusted    ---------- Fraction of Time in Flow Class ---------- 
                       /Actual         Up    Down  Sub   Sup   Up    Down  Norm  Inlet 
  Conduit               Length    Dry  Dry   Dry   Crit  Crit  Crit  Crit  Ltd   Ctrl  
  -------------------------------------------------------------------------------------
  WS02003066WSF200        1.00   0.01  0.02  0.00  0.00  0.97  0.00  0.00  0.38  0.00
  WS02006287WS02006284    1.00   0.03  0.01  0.00  0.64  0.32  0.00  0.00  0.63  0.00
  WS02006284WS02006280    1.00   0.04  0.00  0.00  0.00  0.00  0.00  0.96  0.00  0.00
  WS02006280WS02006229    1.00   0.04  0.00  0.00  0.02  0.04  0.00  0.90  0.03  0.00
  WS02006229WS02006228    1.00   0.00  0.00  0.00  1.00  0.00  0.00  0.00  0.00  0.00
  WS02006256WS02006235    1.00   0.00  0.00  0.00  1.00  0.00  0.00  0.00  0.00  0.00
  WS02006253WS02006251    1.00   0.02  0.01  0.00  0.96  0.00  0.01  0.00  0.00  0.00
  WS02006252WS02006251    1.00   0.09  0.00  0.00  0.28  0.00  0.63  0.00  0.00  0.00
  WS02006251WS02006249    1.00   0.00  0.00  0.00  1.00  0.00  0.00  0.00  0.16  0.00
  WS02006249WS02006248    1.00   0.00  0.01  0.00  0.95  0.00  0.05  0.00  0.00  0.00
  WS02006248WS02006247    1.00   0.01  0.00  0.00  0.99  0.00  0.00  0.00  0.07  0.00
  WS02006247WS02006245    1.00   0.00  0.00  0.00  0.99  0.00  0.00  0.00  0.00  0.00
  WS02006245WS02006243    1.00   0.00  0.00  0.00  0.97  0.00  0.00  0.03  0.00  0.00
  WS02006243WS02006242    1.00   0.00  0.00  0.00  1.00  0.00  0.00  0.00  0.18  0.00
  WS02006242WS02006240    1.00   0.00  0.00  0.00  1.00  0.00  0.00  0.00  0.00  0.00
  WS02006240WS02006239    1.00   0.00  0.00  0.00  0.96  0.00  0.00  0.04  0.01  0.00
  WS02006239WS02006238    1.00   0.00  0.00  0.00  1.00  0.00  0.00  0.00  0.10  0.00
  WS02006238WS02006235    1.00   0.00  0.00  0.00  1.00  0.00  0.00  0.00  0.00  0.00
  WS02006235WS02006234    1.00   0.00  0.00  0.00  0.97  0.00  0.03  0.00  0.00  0.00
  WS02006234WS02006232    1.00   0.00  0.00  0.00  1.00  0.00  0.00  0.00  0.06  0.00
  WS02006232WS02006231    1.00   0.00  0.00  0.00  1.00  0.00  0.00  0.00  0.00  0.00
  WS02006231WS02006230    1.00   0.00  0.00  0.00  0.73  0.00  0.27  0.00  0.00  0.00
  WS02006230WS02006229    1.00   0.00  0.00  0.00  1.00  0.00  0.00  0.00  0.00  0.00
  WS02006228WS02006109    1.00   0.00  0.00  0.00  1.00  0.00  0.00  0.00  0.00  0.00
  WS02006116WS02004401    1.00   0.01  0.00  0.00  0.99  0.00  0.00  0.00  0.00  0.00
  WS02006115WS02006116    1.00   0.01  0.00  0.00  0.99  0.00  0.00  0.00  0.00  0.00
  WS02006113WS02006111    1.00   0.01  0.00  0.00  0.07  0.92  0.00  0.00  0.12  0.00
  WS02006112WS02006115    1.00   0.01  0.00  0.00  0.99  0.00  0.00  0.00  0.00  0.00
  WS02006111WS02006112    1.00   0.01  0.00  0.00  0.99  0.00  0.00  0.00  0.78  0.00
  WS02006110WS02006113    1.00   0.00  0.00  0.00  0.99  0.00  0.00  0.00  0.00  0.00
  WS02006109WS02006110    1.00   0.00  0.00  0.00  0.99  0.00  0.00  0.00  0.00  0.00
  WS02004411WS02004412    1.00   0.02  0.00  0.00  0.98  0.00  0.00  0.00  0.00  0.00
  WS02004401WS02004402    1.00   0.01  0.00  0.00  0.99  0.00  0.00  0.00  0.00  0.00
  WS02004413WS02003067    1.00   0.02  0.01  0.00  0.00  0.00  0.98  0.00  0.00  0.00
  WS02004412WS02004413    1.00   0.02  0.00  0.00  0.98  0.00  0.00  0.00  0.01  0.00
  WS02004410WS02004411    1.00   0.01  0.00  0.00  0.99  0.00  0.00  0.00  0.00  0.00
  WS02004409WS02004410    1.00   0.01  0.00  0.00  0.99  0.00  0.00  0.00  0.02  0.00
  WS02004407WS02004409    1.00   0.01  0.00  0.00  0.98  0.00  0.00  0.00  0.95  0.00
  WS02004406WS02004407    1.00   0.00  0.01  0.00  0.99  0.00  0.00  0.00  0.00  0.00
  WS02004405WS02004406    1.00   0.00  0.00  0.00  1.00  0.00  0.00  0.00  0.00  0.00
  WS02004404WS02004405    1.00   0.00  0.00  0.00  1.00  0.00  0.00  0.00  0.00  0.00
  WS02004403WS02004404    1.00   0.00  0.01  0.00  0.99  0.00  0.00  0.00  0.00  0.00
  WS02004402WS02004403    1.00   0.01  0.00  0.00  0.99  0.00  0.00  0.00  0.00  0.00
  WS02004139WS02001211    1.00   0.00  0.00  0.00  1.00  0.00  0.00  0.00  0.00  0.00
  WS02004138WS02004139    1.00   0.00  0.00  0.00  1.00  0.00  0.00  0.00  1.00  0.00
  WS02003067WS02003066    1.00   0.02  0.00  0.00  0.97  0.00  0.00  0.00  0.00  0.00
  WS02001213WS02003059    1.00   0.00  0.00  0.00  1.00  0.00  0.00  0.00  0.00  0.00
  WS02001212WS02001213    1.00   0.00  0.00  0.00  0.95  0.00  0.05  0.00  0.00  0.00
  WS02001211WS02001212    1.00   0.00  0.00  0.00  1.00  0.00  0.00  0.00  0.00  0.00
  WS02003072WS02003073    1.00   0.00  0.00  0.00  0.00  0.00  0.00  1.00  0.00  0.00
  WS02003069WS02003072    1.00   0.00  0.00  0.00  1.00  0.00  0.00  0.00  0.08  0.00
  WS02003060WS02003069    1.00   0.00  0.00  0.00  0.99  0.01  0.00  0.00  0.06  0.00
  WS02003059WS02003060    1.00   0.00  0.00  0.00  1.00  0.00  0.00  0.00  0.01  0.00
  HS02004901HS02004770    1.00   0.03  0.00  0.00  0.97  0.00  0.00  0.00  0.00  0.00
  HS02004876HS02004881    1.00   0.01  0.00  0.00  0.90  0.09  0.00  0.00  0.00  0.00
  HS02004870HS02004876    1.00   0.00  0.00  0.00  0.99  0.00  0.00  0.00  0.95  0.00
  HS02004842HS02004848    1.00   0.00  0.03  0.00  0.97  0.00  0.00  0.00  0.56  0.00
  HS02004837HS02004842    1.00   0.00  0.00  0.00  1.00  0.00  0.00  0.00  0.11  0.00
  HS02004830HS02004837    1.00   0.00  0.00  0.00  1.00  0.00  0.00  0.00  0.99  0.00
  HS02004824HS02004830    1.00   0.00  0.00  0.00  1.00  0.00  0.00  0.00  0.03  0.00
  HS02004817HS02004824    1.00   0.00  0.00  0.00  1.00  0.00  0.00  0.00  0.92  0.00
  HS02004770HS02004777    1.00   0.00  0.03  0.00  0.97  0.00  0.00  0.00  0.02  0.00
  HS02004799HS02004480    1.00   0.00  0.01  0.00  0.96  0.00  0.03  0.00  0.00  0.00
  HS02004792HS02004799    1.00   0.00  0.00  0.00  1.00  0.00  0.00  0.00  0.98  0.00
  HS02004788HS02004792    1.00   0.00  0.00  0.00  1.00  0.00  0.00  0.00  0.98  0.00
  HS02004785HS02004788    1.00   0.00  0.00  0.00  1.00  0.00  0.00  0.00  0.00  0.00
  HS02004777HS02004785    1.00   0.00  0.00  0.00  1.00  0.00  0.00  0.00  0.11  0.00
  HS02004480HS02004478    1.00   0.03  0.00  0.00  0.71  0.00  0.00  0.25  0.00  0.00
  HS02004479HS02004480    1.00   0.01  0.00  0.00  0.99  0.00  0.00  0.00  0.11  0.00
  HS02004862HS02004870    1.00   0.00  0.00  0.00  1.00  0.00  0.00  0.00  0.03  0.00
  HS02004848HS02004852    1.00   0.03  0.00  0.00  0.97  0.00  0.00  0.00  0.79  0.00
  HS02004856HS02004862    1.00   0.00  0.04  0.00  0.96  0.00  0.00  0.00  0.84  0.00
  HS02004852HS02004856    1.00   0.03  0.00  0.00  0.96  0.00  0.00  0.00  0.77  0.00
  HS02004802HS02004478    1.00   0.03  0.00  0.00  0.96  0.00  0.00  0.00  0.02  0.00
  HS02004478WS02006287    1.00   0.04  0.00  0.00  0.77  0.19  0.00  0.00  0.62  0.00
  HS02004817HS02004807    1.00   0.00  0.03  0.00  0.97  0.00  0.00  0.00  0.01  0.00
  HS02004807HS02004802    1.00   0.03  0.00  0.00  0.96  0.00  0.00  0.00  0.00  0.00
  YS02001759YS02001757    1.00   0.00  0.00  0.00  1.00  0.00  0.00  0.00  0.15  0.00
  YS02001762YS02001759    1.00   0.00  0.00  0.00  1.00  0.00  0.00  0.00  0.02  0.00
  YS02001765YS02001762    1.00   0.00  0.00  0.00  1.00  0.00  0.00  0.00  0.13  0.00
  YS02001770YS02001767    1.00   0.00  0.00  0.00  1.00  0.00  0.00  0.00  0.00  0.00
  YS02001774YS02001770    1.00   0.00  0.03  0.00  0.97  0.00  0.00  0.00  0.02  0.00
  YS02001779YS02001774    1.00   0.00  0.00  0.00  1.00  0.00  0.00  0.00  0.17  0.00
  YS02001649YS02001757    1.00   0.00  0.00  0.00  1.00  0.00  0.00  0.00  0.15  0.00
  YS02001767YS02001765    1.00   0.00  0.00  0.00  1.00  0.00  0.00  0.00  0.00  0.00
  YS02006561YS02001783    1.00   0.04  0.00  0.00  0.37  0.58  0.00  0.00  0.45  0.00
  YS02001783YS02001784    1.00   0.00  0.04  0.00  0.96  0.00  0.00  0.00  0.00  0.00
  YS02001784YS02001785    1.00   0.00  0.00  0.00  1.00  0.00  0.00  0.00  0.16  0.00
  YS02001788YS02001790    1.00   0.00  0.00  0.00  0.42  0.58  0.00  0.00  0.39  0.00
  YS02001790YS02001791    1.00   0.00  0.00  0.00  0.39  0.61  0.00  0.00  0.44  0.00
  YS02001791YS02001793    1.00   0.00  0.00  0.00  0.43  0.57  0.00  0.00  0.03  0.00
  YS02001910YS02001907    1.00   0.00  0.00  0.00  0.99  0.00  0.00  0.01  0.12  0.00
  YS02001786YS02001788    1.00   0.00  0.00  0.00  0.39  0.61  0.00  0.00  0.00  0.00
  YS02001915YS02001910    1.00   0.00  0.00  0.00  0.99  0.01  0.00  0.00  0.13  0.00
  YS02001918YS02001915    1.00   0.00  0.00  0.00  0.99  0.01  0.00  0.00  0.51  0.00
  YS02001923YS02001920    1.00   0.00  0.00  0.00  1.00  0.00  0.00  0.00  0.74  0.00
  YS02001926YS02001923    1.00   0.00  0.02  0.00  0.21  0.00  0.77  0.00  0.00  0.00
  YS02001929YS02001926    1.00   0.00  0.03  0.00  0.97  0.00  0.00  0.00  0.65  0.00
  YS02001920YS02001918    1.00   0.00  0.00  0.00  1.00  0.00  0.00  0.00  0.00  0.00
  YS02001629YS02163301    1.00   0.04  0.00  0.00  0.96  0.00  0.00  0.00  0.00  0.00
  YS02001619YS02001622    1.00   0.03  0.00  0.00  0.97  0.00  0.00  0.00  0.00  0.00
  YS02001622YS02001625    1.00   0.03  0.00  0.00  0.97  0.00  0.00  0.00  0.03  0.00
  YS02001625YS02001629    1.00   0.03  0.01  0.00  0.94  0.00  0.01  0.00  0.00  0.00
  YS02163301YS02001633    1.00   0.00  0.04  0.00  0.96  0.00  0.00  0.00  0.00  0.00
  YS02163601YS02164001    1.00   0.00  0.02  0.00  0.98  0.00  0.00  0.00  0.00  0.00
  YS02164001YS02001641    1.00   0.00  0.02  0.00  0.98  0.00  0.00  0.00  0.06  0.00
  YS02001641YS02001644    1.00   0.00  0.00  0.00  1.00  0.00  0.00  0.00  0.00  0.00
  YS02001647YS02001649    1.00   0.00  0.04  0.00  0.96  0.00  0.00  0.00  0.01  0.00
  YS02006553YS02006556    1.00   0.00  0.00  0.00  1.00  0.00  0.00  0.00  0.03  0.00
  YS02006556YS02006558    1.00   0.00  0.00  0.00  1.00  0.00  0.00  0.00  0.00  0.00
  YSB6556YSB1171          1.00   0.01  0.02  0.00  0.97  0.00  0.00  0.00  0.00  0.00
  YS02001907YS02006553    1.00   0.00  0.01  0.00  0.99  0.00  0.00  0.00  0.00  0.00
  YS02006558YS02006561    1.00   0.04  0.00  0.00  0.20  0.75  0.00  0.00  0.43  0.00
  YS02001633YS02163601    1.00   0.00  0.00  0.00  1.00  0.00  0.00  0.00  0.15  0.00
  YS02001644YS02001647    1.00   0.00  0.04  0.00  0.96  0.00  0.00  0.00  0.00  0.00
  YS02001745YS02001748    1.00   0.00  0.00  0.00  0.93  0.00  0.00  0.06  0.01  0.00
  YS02001748YS02001751    1.00   0.00  0.00  0.00  0.98  0.02  0.00  0.00  0.14  0.00
  YS02001751YS02001754    1.00   0.00  0.00  0.00  0.95  0.00  0.00  0.05  0.01  0.00
  YS02001754YS02001757    1.00   0.00  0.00  0.00  1.00  0.00  0.00  0.00  0.17  0.00
  YS02001882YS02001884    1.00   0.04  0.00  0.00  0.96  0.00  0.00  0.00  0.00  0.00
  YS02001884YS02001887    1.00   0.02  0.01  0.00  0.97  0.00  0.00  0.00  0.00  0.00
  YS02001890YS02001895    1.00   0.00  0.04  0.00  0.96  0.00  0.00  0.00  0.00  0.00
  YS02001895YS02001898    1.00   0.04  0.00  0.00  0.95  0.00  0.01  0.00  0.00  0.00
  YS02001898YS02001901    1.00   0.04  0.00  0.00  0.96  0.00  0.00  0.00  0.01  0.00
  YS02001901YS02001904    1.00   0.04  0.00  0.00  0.96  0.00  0.00  0.00  0.00  0.00
  YS02001904YS02001907    1.00   0.00  0.04  0.00  0.96  0.00  0.00  0.00  0.00  0.00
  YS02001887YS02001890    1.00   0.00  0.00  0.00  0.99  0.00  0.01  0.00  0.00  0.00
  YS02001652YS02001649    1.00   0.00  0.00  0.00  1.00  0.00  0.00  0.00  0.15  0.00
  YS02001655YS02001652    1.00   0.00  0.00  0.00  0.95  0.00  0.00  0.05  0.01  0.00
  YS02001658YS02001655    1.00   0.00  0.04  0.00  0.94  0.02  0.00  0.00  0.02  0.00
  YS02001661YS02001658    1.00   0.04  0.00  0.00  0.93  0.03  0.00  0.00  0.01  0.00
  YS02001664YS02001661    1.00   0.03  0.00  0.00  0.94  0.03  0.00  0.00  0.10  0.00
  YSB1154YSB6556          1.00   0.03  0.00  0.00  0.97  0.00  0.00  0.00  0.01  0.00
  YSB1174YSB1171          1.00   0.02  0.01  0.00  0.97  0.00  0.00  0.00  0.00  0.00
  YSB1171HS02004479       1.00   0.01  0.00  0.00  0.98  0.00  0.00  0.00  0.10  0.00
  HS02004881HS02006253    1.00   0.02  0.00  0.00  0.86  0.01  0.00  0.11  0.72  0.00
  YS02001793JiankangQianchi    1.00   0.00  0.00  0.00  0.72  0.28  0.00  0.00  0.36  0.00
  YS02001757CaochengTiaoxuchi    1.00   0.00  0.05  0.00  0.92  0.03  0.00  0.00  0.00  0.00
  WSF200WS02003060        1.00   0.00  0.01  0.00  0.99  0.00  0.00  0.00  0.31  0.00
  1                       1.00   0.00  0.00  0.00  0.00  1.00  0.00  0.00  0.55  0.00
  
  
  *************************
  Conduit Surcharge Summary
  *************************
  
  ----------------------------------------------------------------------------
                                                           Hours        Hours 
                         --------- Hours Full --------   Above Full   Capacity
  Conduit                Both Ends  Upstream  Dnstream   Normal Flow   Limited
  ----------------------------------------------------------------------------
  WS02006229WS02006228        4.55      4.59      4.55      5.18         4.55
  WS02006256WS02006235        6.33      6.33      6.97      4.70         0.01
  WS02006253WS02006251        3.64      3.64      3.72      0.01         0.01
  WS02006252WS02006251        2.43      2.43      4.02      2.91         0.01
  WS02006251WS02006249        3.67      3.67      3.77      1.77         1.55
  WS02006249WS02006248        3.69      3.69      3.77      4.87         0.01
  WS02006248WS02006247        3.76      3.76      4.05      0.01         0.01
  WS02006247WS02006245        4.03      4.09      4.03      5.11         3.75
  WS02006245WS02006243        4.08      4.08      4.18      0.15         0.29
  WS02006243WS02006242        4.21      4.21      4.37      0.01         0.01
  WS02006242WS02006240        4.31      4.31      4.50      3.43         0.01
  WS02006240WS02006239        4.33      4.33      4.36      1.41         0.92
  WS02006239WS02006238        4.43      4.44      4.45      1.69         1.15
  WS02006238WS02006235        4.43      4.43      4.50      0.01         0.03
  WS02006235WS02006234        4.35      4.35      4.42      6.14         0.01
  WS02006234WS02006232        4.39      4.39      4.53      1.70         1.62
  WS02006232WS02006231        3.83      3.83      4.53      2.04         0.01
  WS02006231WS02006230        3.25      3.25      3.91      6.29         0.01
[...]
  YS02001779YS02001774        6.13      6.13      6.19      0.01         0.01
  YS02001649YS02001757        6.19      6.19      6.23      0.01         0.01
  YS02001767YS02001765        6.18      6.18      6.18      0.01         0.01
  YS02006561YS02001783        1.64      1.64      1.88      0.01         0.01
  YS02001783YS02001784        1.86      1.88      1.86      2.15         1.86
  YS02001784YS02001785        1.77      1.86      1.77      2.90         1.77
  YS02001788YS02001790        1.68      1.68      2.38      0.01         0.01
  YS02001790YS02001791        2.38      2.38      2.46      1.83         1.81
  YS02001791YS02001793        2.46      2.46      2.82      0.01         0.01
  YS02001910YS02001907        1.92      1.92      2.40      0.01         0.01
  YS02001786YS02001788        1.68      1.77      1.68      2.55         1.68
  YS02001915YS02001910        1.77      1.77      1.92      0.01         0.01
  YS02001918YS02001915        1.62      1.62      1.77      0.01         0.01
  YS02001923YS02001920        1.47      1.47      1.65      0.01         0.01
  YS02001926YS02001923        0.01      0.01      0.01      0.01         0.01
  YS02001929YS02001926        0.01      0.01      0.01      0.01         0.01
  YS02001920YS02001918        1.62      1.62      1.65      0.01         0.01
  YS02001629YS02163301        6.16      6.16      6.17      0.01         0.01
  YS02001619YS02001622        6.09      6.09      6.10      0.01         0.02
  YS02001622YS02001625        6.10      6.10      6.15      0.01         0.01
  YS02001625YS02001629        6.08      6.08      6.15      0.01         0.01
  YS02163301YS02001633        6.17      6.17      6.18      0.01         0.01
  YS02163601YS02164001        6.17      6.17      6.20      0.01         0.01
  YS02164001YS02001641        6.17      6.17      6.18      0.01         0.02
  YS02001641YS02001644        6.18      6.18      6.18      2.38         2.47
  YS02001647YS02001649        6.15      6.15      6.19      0.01         0.01
  YS02006553YS02006556        2.10      2.10      2.46      0.01         0.01
  YS02006556YS02006558        2.21      2.21      2.50      0.01         0.01
  YSB6556YSB1171              0.01      0.01      0.30      0.01         0.01
  YS02001907YS02006553        2.92      2.92      3.11      0.01         0.01
  YS02006558YS02006561        1.74      2.07      1.74      2.78         1.74
  YS02001633YS02163601        6.17      6.17      6.20      0.01         0.01
  YS02001644YS02001647        6.15      6.15      6.18      0.01         0.01
  YS02001745YS02001748        0.01      0.01      6.04      0.01         0.01
  YS02001748YS02001751        6.05      6.05      6.08      0.01         0.01
  YS02001751YS02001754        6.08      6.08      6.14      0.01         0.01
  YS02001754YS02001757        6.15      6.15      6.23      0.01         0.01
  YS02001882YS02001884        1.79      1.79      1.80      0.01         0.01
  YS02001884YS02001887        1.84      1.84      1.86      0.01         0.01
  YS02001890YS02001895        1.77      1.77      1.93      0.01         0.01
  YS02001895YS02001898        1.75      1.75      1.77      0.01         0.01
  YS02001898YS02001901        1.77      1.77      1.83      0.01         0.01
  YS02001901YS02001904        1.81      1.81      1.83      0.01         0.01
  YS02001904YS02001907        1.81      1.81      2.47      0.01         0.01
  YS02001887YS02001890        1.88      1.88      1.90      0.52         0.01
  YS02001652YS02001649        6.16      6.16      6.19      0.01         0.01
  YS02001655YS02001652        6.10      6.10      6.15      0.01         0.01
  YS02001658YS02001655        6.05      6.05      6.10      0.01         0.01
  YS02001661YS02001658        0.15      0.15      6.05      0.01         0.01
  YS02001664YS02001661        0.01      0.01      1.81      0.01         0.01
  HS02004881HS02006253        0.01      0.01      2.44      0.01         0.01
  YS02001793JiankangQianchi        2.73      2.73      4.52      0.01         0.01
  YS02001757CaochengTiaoxuchi        5.75      5.75      6.23      0.01         0.01
  
  
  ***************
  Pumping Summary
  ***************
  
  ---------------------------------------------------------------------------------------------------------
                                                  Min       Avg       Max     Total     Power    % Time Off
                        Percent   Number of      Flow      Flow      Flow    Volume     Usage    Pump Curve
  Pump                 Utilized   Start-Ups       LPS       LPS       LPS  10^6 ltr     Kw-hr    Low   High
  ---------------------------------------------------------------------------------------------------------
  CC-Pump-1               70.21           1      0.00    188.21    200.00     3.660      4.12    0.0    0.0
  CC-Pump-2               53.19           6      0.00     95.55    200.00     1.800      2.48    0.0    0.0
  JK-Pump-1               63.83           4      0.00    239.21    300.00     4.325     57.43    0.0    0.0
  JK-Pump-2               57.45           3      0.00    461.29    683.00     7.880     93.29    0.0   97.8
  XR-Pump-1              100.00           1      0.00     95.00     95.00     2.679     22.83    0.0    0.0
  XR-Pump-2               97.87           2      0.00     94.54     95.00     2.565     20.40    0.0    0.0
  XR-Pump-3               95.74           2      0.00     92.96     95.00     2.451     17.96    0.0    0.0
  XR-Pump-4               95.74           2      0.00     92.96     95.00     2.451     17.96    0.0    0.0
  
  
  ***************************
  Link Pollutant Load Summary
  ***************************
  
  ------------------------------------------------------------------------------------------
                                 COD            SS            TN            TP         NH4-N
  Link                            kg            kg            kg            kg            kg
  ------------------------------------------------------------------------------------------
  WS02003066WSF200          1203.042      2312.605        28.469         2.355        14.617
  WS02006287WS02006284       438.087       854.539        12.586         1.181         6.763
  WS02006284WS02006280       438.586       855.340        12.634         1.187         6.792
  WS02006280WS02006229       438.582       855.367        12.632         1.187         6.791
  WS02006229WS02006228      1204.441      2314.312        28.014         2.282        14.308
  WS02006256WS02006235       235.416       444.411         4.956         0.373         2.471
  WS02006253WS02006251        84.704       169.991         1.831         0.136         0.904
  WS02006252WS02006251       541.451      1030.666        10.448         0.714         5.034
  WS02006251WS02006249       617.480      1184.317        12.120         0.841         5.864
  WS02006249WS02006248       543.244      1039.196        10.696         0.742         5.179
  WS02006248WS02006247       539.517      1031.349        10.625         0.737         5.145
  WS02006247WS02006245       539.702      1031.832        10.627         0.738         5.146
  WS02006245WS02006243       540.016      1032.668        10.630         0.738         5.147
  WS02006243WS02006242       541.192      1034.963        10.659         0.740         5.161
  WS02006242WS02006240       541.024      1034.524        10.664         0.741         5.165
  WS02006240WS02006239       541.125      1034.412        10.682         0.743         5.177
  WS02006239WS02006238       541.697      1035.042        10.718         0.747         5.198
  WS02006238WS02006235       541.267      1033.878        10.721         0.748         5.202
  WS02006235WS02006234       769.903      1466.362        15.476         1.103         7.564
  WS02006234WS02006232       769.247      1465.183        15.463         1.102         7.558
  WS02006232WS02006231       768.551      1463.898        15.450         1.102         7.551
  WS02006231WS02006230       768.111      1463.072        15.445         1.102         7.550
  WS02006230WS02006229       768.164      1463.211        15.457         1.103         7.558
  WS02006228WS02006109      1203.259      2312.200        27.980         2.279        14.290
  WS02006116WS02004401      1220.820      2345.045        28.876         2.385        14.822
  WS02006115WS02006116      1222.496      2348.077        28.921         2.389        14.846
  WS02006113WS02006111      1208.606      2320.228        28.703         2.373        14.750
  WS02006112WS02006115      1224.051      2350.897        28.969         2.394        14.872
  WS02006111WS02006112      1207.774      2318.649        28.679         2.371        14.737
  WS02006110WS02006113      1209.238      2321.323        28.723         2.375        14.761
  WS02006109WS02006110      1210.588      2323.720        28.767         2.379        14.785
  WS02004411WS02004412      1208.018      2321.629        28.620         2.369        14.699
  WS02004401WS02004402      1219.177      2342.069        28.828         2.381        14.796
  WS02004413WS02003067      1204.164      2314.672        28.495         2.357        14.630
  WS02004412WS02004413      1206.076      2318.117        28.564         2.363        14.669
  WS02004410WS02004411      1209.582      2324.464        28.663         2.372        14.722
  WS02004409WS02004410      1211.080      2327.177        28.706         2.376        14.745
  WS02004407WS02004409      1212.366      2329.499        28.738         2.379        14.761
  WS02004406WS02004407      1212.723      2330.129        28.742         2.379        14.763
  WS02004405WS02004406      1214.697      2333.673        28.806         2.385        14.798
  WS02004404WS02004405      1216.413      2336.838        28.827         2.385        14.805
  WS02004403WS02004404      1216.211      2336.708        28.744         2.374        14.751
  WS02004402WS02004403      1217.603      2339.228        28.785         2.377        14.773
  WS02004139WS02001211      1360.961      2306.498       102.100        12.316        62.514
  WS02004138WS02004139      1367.019      2316.729       102.548        12.370        62.787
  WS02003067WS02003066      1203.290      2313.061        28.476         2.355        14.621
  WS02001213WS02003059      1394.611      2359.176       105.620        12.761        64.727
  WS02001212WS02001213      1403.294      2373.707       106.296        12.843        65.143
  WS02001211WS02001212      1405.433      2377.207       106.481        12.865        65.257
  WS02003072WS02003073      2696.075      4827.492       144.040        16.367        85.584
  WS02003069WS02003072      2701.761      4836.950       144.482        16.421        85.856
  WS02003060WS02003069      2704.914      4842.510       144.637        16.438        85.947
  WS02003059WS02003060      1391.678      2354.139       105.424        12.738        64.608
  HS02004901HS02004770        19.400        38.444         0.369         0.028         0.174
  HS02004876HS02004881        64.841       131.153         1.382         0.100         0.674
  HS02004870HS02004876        49.301        99.617         1.094         0.080         0.537
  HS02004842HS02004848         9.278        18.136         0.191         0.013         0.089
  HS02004837HS02004842        13.925        25.525         0.662         0.072         0.384
  HS02004830HS02004837        81.308       145.732         4.858         0.568         2.931
  HS02004824HS02004830        82.101       147.037         4.931         0.577         2.976
  HS02004817HS02004824       118.564       221.806         5.667         0.624         3.333
  HS02004770HS02004777        73.685       147.827         1.507         0.104         0.700
  HS02004799HS02004480       235.083       460.639         5.679         0.484         2.882
  HS02004792HS02004799       214.142       417.332         5.330         0.464         2.722
  HS02004788HS02004792       116.315       227.341         3.333         0.303         1.755
  HS02004785HS02004788        75.101       150.091         1.653         0.123         0.793
  HS02004777HS02004785        74.431       149.016         1.592         0.115         0.755
  HS02004480HS02004478       294.422       579.924         6.703         0.559         3.370
  HS02004479HS02004480        62.980       125.163         1.335         0.113         0.681
  HS02004862HS02004870        37.531        74.848         0.862         0.066         0.425
  HS02004848HS02004852        15.822        31.381         0.320         0.022         0.149
  HS02004856HS02004862        25.851        52.197         0.514         0.035         0.242
  HS02004852HS02004856        15.835        31.404         0.320         0.022         0.149
  HS02004802HS02004478       144.597       276.113         5.948         0.629         3.432
  HS02004478WS02006287       438.235       854.754        12.602         1.183         6.773
  HS02004817HS02004807       117.206       219.664         5.527         0.607         3.246
  HS02004807HS02004802       144.762       276.365         5.980         0.634         3.453
  YS02001759YS02001757       467.662       883.598         9.152         0.641         4.462
  YS02001762YS02001759       219.269       413.698         4.502         0.318         2.217
  YS02001765YS02001762       220.152       416.343         4.535         0.321         2.235
  YS02001770YS02001767       222.508       423.717         4.411         0.299         2.145
  YS02001774YS02001770       422.219       830.600         8.124         0.544         3.929
  YS02001779YS02001774       421.404       829.078         8.186         0.554         3.973
  YS02001649YS02001757       415.670       771.393         8.251         0.573         3.967
  YS02001767YS02001765       221.711       420.299         4.576         0.324         2.257
  YS02006561YS02001783      1271.961      2402.029        26.203         1.934        12.965
  YS02001783YS02001784      1271.814      2401.783        26.198         1.933        12.962
  YS02001784YS02001785      1279.146      2413.536        26.910         2.023        13.408
  YS02001788YS02001790      1279.674      2414.364        26.981         2.032        13.453
  YS02001790YS02001791      1280.606      2415.848        27.079         2.044        13.514
  YS02001791YS02001793      1280.433      2415.523        27.073         2.044        13.511
  YS02001910YS02001907       563.934      1064.933        12.698         0.936         6.406
  YS02001786YS02001788      1279.326      2413.836        26.938         2.026        13.425
  YS02001915YS02001910       564.047      1065.118        12.656         0.929         6.377
  YS02001918YS02001915       276.478       501.262         6.815         0.586         3.578
  YS02001923YS02001920       252.290       460.290         4.805         0.340         2.334
  YS02001926YS02001923       249.402       455.202         4.686         0.328         2.266
  YS02001929YS02001926       247.588       452.033         4.610         0.320         2.222
  YS02001920YS02001918       273.147       494.155         6.736         0.580         3.538
  YS02001629YS02163301        89.589       159.133         1.892         0.124         0.887
  YS02001619YS02001622       259.381       485.235         5.243         0.348         2.461
  YS02001622YS02001625       258.409       483.707         5.219         0.346         2.450
  YS02001625YS02001629        86.658       153.323         1.847         0.120         0.864
  YS02163301YS02001633        94.411       168.593         1.969         0.131         0.926
  YS02163601YS02164001       529.125       976.687        10.167         0.735         4.887
  YS02164001YS02001641       529.037       976.527        10.154         0.733         4.879
  YS02001641YS02001644       530.067       978.252        10.167         0.734         4.884
  YS02001647YS02001649       565.547      1058.425        11.172         0.782         5.334
  YS02006553YS02006556       791.087      1475.233        16.773         1.269         8.397
  YS02006556YS02006558       791.187      1475.417        16.737         1.263         8.373
  YSB6556YSB1171              36.520        72.730         0.718         0.059         0.359
  YS02001907YS02006553       791.144      1475.350        16.802         1.273         8.416
  YS02006558YS02006561      1271.991      2402.077        26.203         1.934        12.965
  YS02001633YS02163601       529.747       977.675        10.144         0.731         4.869
  YS02001644YS02001647       573.946      1074.234        11.311         0.793         5.400
  YS02001745YS02001748       354.070       679.962         6.989         0.437         3.358
  YS02001748YS02001751       353.389       678.808         6.996         0.440         3.365
  YS02001751YS02001754       352.490       677.332         6.983         0.440         3.360
  YS02001754YS02001757       353.339       678.612         7.150         0.462         3.469
  YS02001882YS02001884         2.890         5.087         0.056         0.004         0.028
  YS02001884YS02001887         7.557        13.656         0.143         0.011         0.070
  YS02001890YS02001895       615.286      1176.439        11.370         0.859         5.548
  YS02001895YS02001898       615.123      1176.231        11.363         0.858         5.544
  YS02001898YS02001901       614.871      1175.767        11.357         0.858         5.541
  YS02001901YS02001904       614.739      1175.570        11.367         0.859         5.548
  YS02001904YS02001907       614.959      1175.867        11.422         0.867         5.583
  YS02001887YS02001890       669.189      1284.239        12.355         0.936         6.031
  YS02001652YS02001649       306.302       582.573         6.070         0.439         2.853
  YS02001655YS02001652       306.943       583.610         6.088         0.441         2.862
  YS02001658YS02001655       306.655       583.151         6.007         0.430         2.808
  YS02001661YS02001658       307.452       584.439         6.026         0.431         2.817
  YS02001664YS02001661       323.832       611.188         6.405         0.457         2.991
  YSB1154YSB6556              36.100        72.067         0.671         0.053         0.330
  YSB1174YSB1171              24.945        50.010         0.488         0.039         0.242
  YSB1171HS02004479           62.900       125.015         1.340         0.114         0.684
  HS02004881HS02006253        73.398       149.012         1.531         0.109         0.745
  YS02001793JiankangQianchi      1280.754      2416.104        27.083         2.045        13.516
  YS02001757CaochengTiaoxuchi       804.227      1509.103        15.876         1.087         7.671
  WSF200WS02003060          1202.600      2311.795        28.464         2.355        14.615
  1                         2701.724      4835.427       144.897        16.479        86.132
  CC-Pump-1                  361.491       687.752         6.981         0.477         3.364
  CC-Pump-2                  179.712       342.387         3.461         0.237         1.667
  JK-Pump-1                  356.212       678.509         7.304         0.543         3.618
  JK-Pump-2                  784.978      1501.899        15.890         1.173         7.845
  XR-Pump-1                  373.699       630.375        28.678         3.472        17.596
  XR-Pump-2                  346.335       586.592        26.051         3.144        15.954
  XR-Pump-3                  325.273       552.851        24.051         2.894        14.706
  XR-Pump-4                  325.273       552.851        24.051         2.894        14.706
  

  Analysis begun on:  Wed Jul 14 14:33:48 2021
  Analysis ended on:  Wed Jul 14 14:33:51 2021
  Total elapsed time: 00:00:03