
  EPA STORM WATER MANAGEMENT MODEL - VERSION 5.1 (Build 5.3.0.dev0)
  --------------------------------------------------------------

  WARNING 04: minimum elevation drop used for Conduit WS02004404WS02004405
  WARNING 03: negative offset ignored for Link YS02001904YS02001907
  
  *********************************************************
  NOTE: The summary statistics displayed in this report are
  based on results found at every computational time step,  
  not just on results from each reporting time step.
  *********************************************************
  
  ****************
  Analysis Options
  ****************
  Flow Units ............... LPS
  Process Models:
    Rainfall/Runoff ........ YES
    RDII ................... NO
    Snowmelt ............... NO
    Groundwater ............ NO
    Flow Routing ........... YES
    Ponding Allowed ........ NO
    Water Quality .......... YES
  Infiltration Method ...... HORTON
  Flow Routing Method ...... DYNWAVE
  Surcharge Method ......... EXTRAN
  Starting Date ............ 08/28/2015 08:00:00
  Ending Date .............. 08/28/2015 15:50:00
  Antecedent Dry Days ...... 8.0
  Report Time Step ......... 00:01:00
  Wet Time Step ............ 00:01:00
  Dry Time Step ............ 00:01:00
  Routing Time Step ........ 5.00 sec
  Variable Time Step ....... YES
  Maximum Trials ........... 8
  Number of Threads ........ 4
  Head Tolerance ........... 0.001500 m
  
  
  **************************        Volume         Depth
  Runoff Quantity Continuity     hectare-m            mm
  **************************     ---------       -------
  Total Precipitation ......         7.641        16.729
  Evaporation Loss .........         0.000         0.000
  Infiltration Loss ........         1.184         2.592
  Surface Runoff ...........         5.481        12.000
  Final Storage ............         0.977         2.139
  Continuity Error (%) .....        -0.016
  
  
  **************************           COD            SS            TN            TP         NH4-N
  Runoff Quality Continuity             kg            kg            kg            kg            kg
  **************************    ----------    ----------    ----------    ----------    ----------
  Initial Buildup ..........     41378.656     70582.865      1804.177       168.684      1032.807
  Surface Buildup ..........        30.344        63.217         2.449         0.220         1.402
  Wet Deposition ...........         0.000         0.000         0.000         0.000         0.000
  Sweeping Removal .........         0.000         0.000         0.000         0.000         0.000
  Infiltration Loss ........       127.934       247.015         2.452         0.174         1.174
  BMP Removal ..............         0.000         0.000         0.000         0.000         0.000
  Surface Runoff ...........      5553.100     10632.121       107.101         7.411        51.076
  Remaining Buildup ........     35725.917     59762.998      1697.031       161.316       981.940
  Continuity Error (%) .....         0.005         0.006         0.002         0.002         0.002
  
  
  **************************        Volume        Volume
  Flow Routing Continuity        hectare-m      10^6 ltr
  **************************     ---------     ---------
  Dry Weather Inflow .......         0.616         6.165
  Wet Weather Inflow .......         5.479        54.792
  Groundwater Inflow .......         0.000         0.000
  RDII Inflow ..............         0.000         0.000
  External Inflow ..........         0.102         1.024
  External Outflow .........         2.220        22.205
  Flooding Loss ............         3.556        35.558
  Evaporation Loss .........         0.000         0.000
  Exfiltration Loss ........         0.000         0.000
  Initial Stored Volume ....         0.076         0.761
  Final Stored Volume ......         0.626         6.256
  Continuity Error (%) .....        -2.038
  
  
  **************************           COD            SS            TN            TP         NH4-N
  Quality Routing Continuity            kg            kg            kg            kg            kg
  **************************    ----------    ----------    ----------    ----------    ----------
  Dry Weather Inflow .......      1541.201      2465.922       147.955        18.494        92.472
  Wet Weather Inflow .......      5552.106     10630.389       107.080         7.410        51.066
  Groundwater Inflow .......         0.000         0.000         0.000         0.000         0.000
  RDII Inflow ..............         0.000         0.000         0.000         0.000         0.000
  External Inflow ..........       183.418       293.469        17.608         2.201        11.005
  External Outflow .........      2684.106      4801.477       144.487        16.447        85.924
  Flooding Loss ............      3901.698      7391.498        99.849         8.731        52.457
  Exfiltration Loss ........         0.000         0.000         0.000         0.000         0.000
  Mass Reacted .............         0.000         0.000         0.000         0.000         0.000
  Initial Stored Mass ......         0.000         0.000         0.000         0.000         0.000
  Final Stored Mass ........       551.399       961.906        24.420         2.600        14.128
  Continuity Error (%) .....         1.917         1.754         1.426         1.164         1.316
  
  
  *************************
  Highest Continuity Errors
  *************************
  Node HS02004842 (10.96%)
  Node JK-storage (-10.38%)
  Node YS02001884 (7.53%)
  Node HS02004817 (2.13%)
  Node YSB1171 (1.97%)
  
  
  ***************************
  Time-Step Critical Elements
  ***************************
  Link WS02006252WS02006251 (67.13%)
  Link WS02006280WS02006229 (11.49%)
  Link YS02001793JiankangQianchi (5.47%)
  Link WS02006238WS02006235 (3.90%)
  Link WS02004404WS02004405 (2.81%)
  
  
  ********************************
  Highest Flow Instability Indexes
  ********************************
  Link WS02006113WS02006111 (39)
  Link YS02163601YS02164001 (36)
  Link YS02001619YS02001622 (36)
  Link YS02163301YS02001633 (35)
  Link YS02001629YS02163301 (35)
  
  
  *************************
  Routing Time Step Summary
  *************************
  Minimum Time Step           :     0.09 sec
  Average Time Step           :     1.13 sec
  Maximum Time Step           :     5.00 sec
  Percent in Steady State     :    -0.00
  Average Iterations per Step :     4.19
  Percent Not Converging      :    18.38
  
  
  ***************************
  Subcatchment Runoff Summary
  ***************************
  
  ------------------------------------------------------------------------------------------------------------------------------
                            Total      Total      Total      Total     Imperv       Perv      Total       Total     Peak  Runoff
                           Precip      Runon       Evap      Infil     Runoff     Runoff     Runoff      Runoff   Runoff   Coeff
  Subcatchment                 mm         mm         mm         mm         mm         mm         mm    10^6 ltr      LPS
  ------------------------------------------------------------------------------------------------------------------------------
  sub0                      16.73       0.00       0.00       0.71      15.51       0.47      15.98        0.01     3.87   0.955
  sub1                      16.73       0.00       0.00       1.18      14.80       0.66      15.46        0.10    26.74   0.924
  sub2                      16.73       0.00       0.00       4.79      10.46       1.40      11.85        0.11    25.81   0.708
  sub3                      16.73       0.00       0.00       5.01      10.42       1.18      11.60        0.26    56.97   0.693
  sub4                      16.73       0.00       0.00       1.28      14.64       0.56      15.20        0.32    66.74   0.909
  sub5                      16.73       0.00       0.00       0.73      15.46       0.44      15.91        0.18    46.91   0.951
  sub7                      16.73       0.00       0.00       0.93      15.16       0.58      15.74        0.05    14.85   0.941
  sub8                      16.73       0.00       0.00       0.94      15.15       0.57      15.72        0.10    27.42   0.940
  sub9                      16.73       0.00       0.00       0.94      15.15       0.57      15.72        0.08    20.52   0.940
  sub10                     16.73       0.00       0.00       0.83      15.30       0.50      15.81        0.17    46.04   0.945
  sub11                     16.73       0.00       0.00       0.83      15.32       0.51      15.83        0.18    50.62   0.947
  sub12                     16.73       0.00       0.00       1.34      14.51       0.83      15.34        0.13    39.22   0.917
  sub14                     16.73       0.00       0.00       0.94      15.15       0.57      15.72        0.15    40.40   0.939
  sub15                     16.73       0.00       0.00       3.54      11.65       1.48      13.13        0.23    57.86   0.785
  sub16                     16.73       0.00       0.00       3.72      11.17       1.80      12.97        0.14    37.34   0.776
  sub17                     16.73       0.00       0.00       3.62      11.33       1.73      13.07        0.11    30.57   0.781
  sub22                     16.73       0.00       0.00       5.27       9.49       1.92      11.42        0.72   183.11   0.683
  sub23                     16.73       0.00       0.00       4.37      10.50       1.82      12.32        0.59   153.57   0.736
  sub60                     16.73       0.00       0.00       1.74      12.78       0.27      13.05        3.96   446.24   0.780
  sub61                     16.73       0.00       0.00       2.46      12.72       0.38      13.11        4.04   542.53   0.784
  sub62                     16.73       0.00       0.00       1.06      13.91       0.27      14.19        4.36   558.01   0.848
  sub63                     16.73       0.00       0.00       4.39      11.06       0.46      11.52        3.49   496.40   0.689
  sub64                     16.73       0.00       0.00       2.23      12.28       0.28      12.56        3.82   424.95   0.751
  sub65                     16.73       0.00       0.00       1.91      12.51       0.27      12.77        3.93   431.32   0.764
  sub66                     16.73       0.00       0.00       4.54      10.46       0.31      10.78        3.31   388.44   0.644
  sub67                     16.73       0.00       0.00       1.01      14.45       0.32      14.78        4.56   675.76   0.883
  sub68                     16.73       0.00       0.00       1.95      13.33       0.39      13.71        4.22   589.75   0.820
  sub69                     16.73       0.00       0.00       2.00      13.62       0.51      14.12        3.30   542.07   0.844
  sub70                     16.73      14.42       0.00       8.47      19.01       2.12      21.13        4.84   534.50   0.678
  sub71                     16.73       0.00       0.00       1.08      13.65       0.25      13.90        3.28   394.68   0.831
  sub72                     16.73       0.00       0.00       1.02      11.50       0.15      11.65        2.37   206.66   0.697
  1                         16.73      20.58       0.00       1.37      22.38       7.20      29.58        6.95   612.18   0.793
  2                         16.73       0.00       0.00       3.02       4.04       3.18       7.22        2.89   331.58   0.431
  
  
  ****************************
  Subcatchment Washoff Summary
  ****************************
  
  ------------------------------------------------------------------------------------------
                                 COD            SS            TN            TP         NH4-N
  Subcatchment                    kg            kg            kg            kg            kg
  ------------------------------------------------------------------------------------------
  sub0                         3.641         7.161         0.064         0.005         0.031
  sub1                        15.670        31.767         0.296         0.021         0.143
  sub2                        10.304        20.454         0.214         0.015         0.099
  sub3                        25.293        49.815         0.517         0.036         0.240
  sub4                        36.168        74.260         0.714         0.044         0.344
  sub5                        35.763        71.366         0.649         0.050         0.316
  sub7                         7.894        16.212         0.150         0.010         0.073
  sub8                        11.755        24.726         0.234         0.014         0.113
  sub9                        10.113        20.966         0.196         0.013         0.095
  sub10                       29.347        59.341         0.545         0.040         0.265
  sub11                       28.395        58.052         0.536         0.037         0.260
  sub12                       24.463        49.072         0.450         0.034         0.218
  sub14                       21.697        44.543         0.414         0.028         0.200
  sub15                       29.696        58.821         0.572         0.042         0.270
  sub16                       19.246        38.050         0.367         0.028         0.174
  sub17                       17.687        34.653         0.330         0.026         0.156
  sub22                       95.915       186.896         1.820         0.139         0.857
  sub23                       54.382       109.539         1.141         0.076         0.527
  sub60                      353.947       679.509         6.988         0.437         3.357
  sub61                      439.695       840.113         8.188         0.570         3.952
  sub62                      449.790       873.119         8.744         0.564         4.209
  sub63                      328.186       618.356         6.505         0.463         3.037
  sub64                      450.924       835.563         8.299         0.611         3.976
  sub65                      460.537       856.688         8.527         0.617         4.090
  sub66                      259.427       485.147         5.248         0.348         2.463
  sub67                      667.181      1281.068        12.075         0.900         5.853
  sub68                      479.473       924.467         9.153         0.628         4.389
  sub69                      429.286       835.450         8.068         0.576         3.873
  sub70                      758.301      1478.311        15.194         1.074         7.173
  sub71                      296.268       580.620         6.027         0.356         2.890
  sub72                      247.759       452.374         4.612         0.320         2.223
  1                          576.917      1130.968        11.723         0.829         5.484
  2                           65.566       118.435         1.802         0.109         0.773
  ------------------------------------------------------------------------------------------
  System                    6740.687     12945.882       130.363         9.060        62.122
  
  
  ******************
  Node Depth Summary
  ******************
  
  ---------------------------------------------------------------------------------
                                 Average  Maximum  Maximum  Time of Max    Reported
                                   Depth    Depth      HGL   Occurrence   Max Depth
  Node                 Type       Meters   Meters   Meters  days hr:min      Meters
  ---------------------------------------------------------------------------------
  WS02001211           JUNCTION     0.78     0.85     5.69     0  02:01        0.85
  WS02001212           JUNCTION     0.49     0.58     5.64     0  02:02        0.58
  WS02001213           JUNCTION     0.73     0.86     5.62     0  02:01        0.86
  WS02003069           JUNCTION     0.54     0.72     5.31     0  02:01        0.72
  WS02003072           JUNCTION     0.60     0.77     5.14     0  02:01        0.77
  WS02003073           JUNCTION     0.37     0.48     4.55     0  02:02        0.48
  WS02003060           JUNCTION     0.48     0.64     5.57     0  02:00        0.64
  WS02003066           JUNCTION     0.27     0.39     5.94     0  01:55        0.39
  WS02003059           JUNCTION     0.78     0.91     5.60     0  02:01        0.91
  WS02003067           JUNCTION     0.64     0.83     6.15     0  01:54        0.83
  WS02004401           JUNCTION     0.78     1.31     7.31     0  01:52        1.29
  WS02004402           JUNCTION     0.80     1.30     7.26     0  01:52        1.27
  WS02004403           JUNCTION     0.82     1.27     7.20     0  01:52        1.24
  WS02004404           JUNCTION     0.89     1.31     7.16     0  01:52        1.28
  WS02004406           JUNCTION     0.89     1.21     7.04     0  01:52        1.18
  WS02004409           JUNCTION     0.59     0.98     6.75     0  01:55        0.98
  WS02004410           JUNCTION     0.60     0.97     6.69     0  01:55        0.96
  WS02004411           JUNCTION     0.62     0.94     6.62     0  01:55        0.94
  WS02004412           JUNCTION     0.63     0.92     6.56     0  01:55        0.92
  WS02004413           JUNCTION     0.78     1.03     6.50     0  01:54        1.03
  WS02004405           JUNCTION     0.88     1.28     7.13     0  01:52        1.25
  WS02006109           JUNCTION     0.88     1.76     8.38     0  01:53        1.75
  WS02006110           JUNCTION     0.84     1.55     8.13     0  01:52        1.54
  WS02006111           JUNCTION     0.28     1.01     7.72     0  01:52        0.97
  WS02006112           JUNCTION     0.96     1.66     7.54     0  01:52        1.64
  WS02006113           JUNCTION     0.41     1.06     7.96     0  01:52        1.02
  WS02006115           JUNCTION     0.68     1.32     7.46     0  01:52        1.29
  WS02006116           JUNCTION     0.76     1.35     7.39     0  01:52        1.33
  WS02006230           JUNCTION     0.91     1.99     8.73     0  01:53        1.97
  WS02006231           JUNCTION     0.65     1.62     8.75     0  01:53        1.60
  WS02006232           JUNCTION     0.80     1.71     8.75     0  01:53        1.68
  WS02006234           JUNCTION     0.75     1.60     8.75     0  01:53        1.59
  WS02006235           JUNCTION     0.79     1.60     8.77     0  01:53        1.58
  WS02006238           JUNCTION     0.82     1.62     8.76     0  01:53        1.60
  WS02006240           JUNCTION     0.72     1.44     8.74     0  01:53        1.43
  WS02006242           JUNCTION     0.78     1.46     8.73     0  01:53        1.45
  WS02006243           JUNCTION     0.67     1.30     8.72     0  01:53        1.28
  WS02006245           JUNCTION     0.64     1.22     8.71     0  01:53        1.22
  WS02006247           JUNCTION     0.65     1.24     8.74     0  04:17        1.20
  WS02006248           JUNCTION     0.60     1.10     8.69     0  01:50        1.10
  WS02006249           JUNCTION     0.62     1.09     8.69     0  01:50        1.09
  WS02006239           JUNCTION     0.78     1.54     8.75     0  01:53        1.52
  WS02006251           JUNCTION     0.60     1.38     9.05     0  02:47        1.21
  WS02006252           JUNCTION     0.39     0.91     9.15     0  04:19        0.76
  WS02006253           JUNCTION     0.63     1.46     9.10     0  02:47        1.25
  WS02006256           JUNCTION     1.74     2.35     9.28     0  00:00        2.35
  WS02004138           JUNCTION     0.19     0.20     7.45     0  00:00        0.19
  WS02004139           JUNCTION     0.73     0.79     5.70     0  02:02        0.79
  WS02004407           JUNCTION     0.26     0.40     6.72     0  01:53        0.40
  WS02006228           JUNCTION     0.90     1.94     8.59     0  01:53        1.93
  WS02006229           JUNCTION     0.89     2.02     8.72     0  01:53        2.00
  WS02006280           JUNCTION     0.07     0.33     8.60     0  01:52        0.31
  WS02006284           JUNCTION     0.37     0.66     9.06     0  01:54        0.66
  WS02006287           JUNCTION     0.10     0.40     9.36     0  01:54        0.40
  WSF200               JUNCTION     0.26     0.44     5.68     0  01:55        0.44
  HS02004901           JUNCTION     0.13     0.38    10.21     0  01:53        0.38
  HS02004881           JUNCTION     0.01     0.05     9.08     0  01:54        0.05
  HS02004876           JUNCTION     0.04     0.17     9.20     0  01:54        0.17
  HS02004870           JUNCTION     0.02     0.10     9.38     0  01:54        0.10
  HS02004862           JUNCTION     0.02     0.11     9.50     0  01:55        0.11
  HS02004856           JUNCTION     0.08     0.15     9.58     0  01:54        0.15
  HS02004852           JUNCTION     0.01     0.08     9.59     0  01:54        0.08
  HS02004848           JUNCTION     0.01     0.07     9.67     0  01:54        0.07
  HS02004842           JUNCTION     0.34     0.40     9.67     0  01:54        0.40
  HS02004837           JUNCTION     0.03     0.09     9.67     0  01:54        0.09
  HS02004830           JUNCTION     0.04     0.11     9.58     0  01:55        0.11
  HS02004824           JUNCTION     0.03     0.15     9.55     0  01:54        0.15
  HS02004817           JUNCTION     0.45     0.71     9.56     0  01:54        0.71
  HS02004807           JUNCTION     0.13     0.38     9.55     0  01:55        0.38
  HS02004802           JUNCTION     0.17     0.41     9.54     0  01:55        0.41
  HS02004799           JUNCTION     0.13     0.48     9.69     0  01:53        0.48
  HS02004792           JUNCTION     0.04     0.22     9.75     0  01:53        0.22
  HS02004788           JUNCTION     0.03     0.16    10.06     0  01:54        0.16
  HS02004785           JUNCTION     0.05     0.25    10.15     0  01:53        0.25
  HS02004777           JUNCTION     0.15     0.40    10.20     0  01:53        0.40
  HS02004770           JUNCTION     0.12     0.37    10.21     0  01:53        0.37
  HS02004480           JUNCTION     0.09     0.39     9.64     0  01:53        0.39
  HS02004479           JUNCTION     0.12     0.43     9.64     0  01:53        0.43
  HS02004478           JUNCTION     0.07     0.29     9.52     0  01:54        0.29
  YS02001745           JUNCTION     0.77     0.96     8.48     0  02:44        0.96
  YS02001748           JUNCTION     1.18     1.40     8.48     0  02:45        1.40
  YS02001751           JUNCTION     1.37     1.59     8.47     0  02:46        1.58
  YS02001754           JUNCTION     1.62     1.86     8.47     0  02:45        1.85
  YS02001762           JUNCTION     1.82     2.06     8.46     0  02:45        2.04
  YS02001765           JUNCTION     1.77     2.00     8.45     0  02:45        1.99
  YS02001767           JUNCTION     1.74     1.96     8.45     0  02:46        1.95
  YS02001770           JUNCTION     1.73     1.94     8.43     0  02:46        1.93
  YS02001774           JUNCTION     1.80     1.99     8.41     0  02:47        1.99
  YS02001779           JUNCTION     1.54     1.68     8.37     0  01:51        1.68
  YS02001882           JUNCTION     0.64     1.83     8.55     0  01:48        1.63
  YS02001884           JUNCTION     0.73     1.93     8.55     0  01:48        1.73
  YS02001759           JUNCTION     1.86     2.09     8.46     0  02:45        2.08
  YS02001887           JUNCTION     0.81     1.94     8.48     0  01:48        1.81
  YS02001890           JUNCTION     0.84     1.81     8.32     0  01:48        1.81
  YS02001898           JUNCTION     0.61     1.57     8.30     0  01:51        1.56
  YS02001901           JUNCTION     0.72     1.68     8.29     0  02:00        1.67
  YS02001904           JUNCTION     0.70     1.64     8.27     0  01:51        1.63
  YS02001907           JUNCTION     1.03     1.96     8.25     0  01:51        1.96
  YS02001910           JUNCTION     0.82     1.85     8.36     0  01:51        1.79
  YS02001915           JUNCTION     0.62     1.71     8.43     0  01:51        1.62
  YS02001918           JUNCTION     0.37     1.49     8.56     0  01:51        1.35
  YS02001619           JUNCTION     1.32     1.58     8.51     0  01:45        1.48
  YS02001629           JUNCTION     1.68     1.85     8.40     0  01:46        1.84
  YS02001641           JUNCTION     1.78     1.94     8.37     0  01:48        1.93
  YS02001644           JUNCTION     1.78     1.92     8.35     0  01:48        1.92
  YS02001652           JUNCTION     1.63     2.11     8.71     0  03:48        1.86
  YS02001655           JUNCTION     1.39     2.03     8.88     0  03:48        1.64
  YS02001920           JUNCTION     0.47     1.63     8.64     0  01:51        1.46
  YS02001923           JUNCTION     0.30     1.42     8.68     0  01:51        1.25
  YS02001926           JUNCTION     0.34     1.37     8.81     0  01:51        1.12
  YS02001929           JUNCTION     0.21     0.97     8.66     0  01:52        0.94
  YS02001658           JUNCTION     1.12     1.97     9.11     0  03:48        1.40
  YS02001661           JUNCTION     0.88     2.04     9.44     0  03:48        1.23
  YS02001664           JUNCTION     0.39     0.57     8.49     0  03:53        0.56
  YS02001622           JUNCTION     1.35     1.57     8.48     0  01:45        1.50
  YS02001633           JUNCTION     1.77     1.95     8.40     0  02:12        1.94
  YS02001649           JUNCTION     1.83     2.05     8.44     0  02:45        2.05
  YS02001757           JUNCTION     1.95     2.20     8.46     0  02:45        2.19
  YS02001895           JUNCTION     0.60     1.57     8.31     0  01:55        1.56
  YS02001625           JUNCTION     1.63     1.78     8.38     0  01:45        1.78
  YS02163301           JUNCTION     1.71     1.89     8.40     0  01:46        1.88
  YS02163601           JUNCTION     1.82     1.99     8.39     0  01:51        1.99
  YS02164001           JUNCTION     1.76     1.92     8.38     0  03:38        1.91
  YS02001647           JUNCTION     1.61     1.80     8.41     0  03:55        1.78
  YSB1154              JUNCTION     0.26     0.58     9.64     0  01:53        0.58
  YSB6556              JUNCTION     0.16     0.47     9.64     0  01:53        0.47
  YSB1174              JUNCTION     0.22     0.53     9.64     0  01:53        0.53
  YSB1171              JUNCTION     0.42     0.74     9.64     0  01:53        0.74
  YS02006553           JUNCTION     1.03     1.97     8.25     0  02:14        1.96
  YS02006561           JUNCTION     0.37     1.38     8.04     0  01:49        1.35
  YS02006556           JUNCTION     1.00     1.93     8.24     0  02:04        1.93
  YS02006558           JUNCTION     1.04     1.98     8.25     0  02:15        1.97
  YS02001783           JUNCTION     0.61     1.70     7.85     0  01:49        1.68
  YS02001784           JUNCTION     0.62     1.56     7.63     0  01:49        1.55
  YS02001786           JUNCTION     0.55     1.36     7.39     0  01:49        1.30
  YS02001788           JUNCTION     0.48     1.38     7.35     0  01:45        1.12
  YS02001790           JUNCTION     0.60     1.96     7.60     0  04:42        1.29
  YS02001791           JUNCTION     0.57     2.72     8.19     0  04:41        1.27
  YS02001793           JUNCTION     0.81     2.67     7.50     0  04:39        1.80
  WSC                  OUTFALL      0.37     0.48     1.15     0  02:02        0.48
  JK-storage           STORAGE      3.18     5.80     6.60     0  01:44        5.80
  CC-storage           STORAGE      1.21     1.45     8.45     0  02:43        1.45
  XR-storage           STORAGE      7.14     7.72     5.72     0  02:07        7.72
  
  
  *******************
  Node Inflow Summary
  *******************
  
  -------------------------------------------------------------------------------------------------
                                  Maximum  Maximum                  Lateral       Total        Flow
                                  Lateral    Total  Time of Max      Inflow      Inflow     Balance
                                   Inflow   Inflow   Occurrence      Volume      Volume       Error
  Node                 Type           LPS      LPS  days hr:min    10^6 ltr    10^6 ltr     Percent
  -------------------------------------------------------------------------------------------------
  WS02001211           JUNCTION      7.35   389.75     0  02:43       0.207        10.3       0.399
  WS02001212           JUNCTION      0.00   392.14     0  02:42           0        10.3       0.243
  WS02001213           JUNCTION      0.00   394.23     0  02:42           0        10.2       0.288
  WS02003069           JUNCTION      0.32  1345.20     0  02:00     0.00902        22.3       0.171
  WS02003072           JUNCTION      0.00  1345.19     0  02:01           0        22.3       0.202
  WS02003073           JUNCTION      1.82  1347.38     0  02:01      0.0514        22.3       0.238
  WS02003060           JUNCTION     16.53  1344.64     0  02:00       0.466        22.3       0.159
  WS02003066           JUNCTION      0.00   958.20     0  01:55           0        11.7       0.043
  WS02003059           JUNCTION      0.00   397.01     0  02:42           0        10.2       0.405
  WS02003067           JUNCTION      0.00   957.84     0  01:55           0        11.7       0.087
  WS02004401           JUNCTION      0.00   971.09     0  01:53           0        11.9       0.180
  WS02004402           JUNCTION      0.00   970.70     0  01:53           0        11.9       0.169
  WS02004403           JUNCTION      0.00   971.63     0  01:53           0        11.9       0.155
  WS02004404           JUNCTION      0.16   972.23     0  01:53     0.00457        11.9       0.115
  WS02004406           JUNCTION      0.00   973.25     0  01:53           0        11.9       0.283
  WS02004409           JUNCTION      0.00   971.35     0  01:53           0        11.8       0.154
  WS02004410           JUNCTION      0.00   959.05     0  01:54           0        11.8       0.174
  WS02004411           JUNCTION      0.00   956.21     0  01:55           0        11.8       0.178
  WS02004412           JUNCTION      0.00   957.75     0  01:55           0        11.7       0.190
  WS02004413           JUNCTION      0.00   957.90     0  01:55           0        11.7       0.279
  WS02004405           JUNCTION      0.04   973.81     0  01:53     0.00107        11.9       0.174
  WS02006109           JUNCTION      1.23   939.55     0  01:53      0.0347        11.9       0.165
  WS02006110           JUNCTION      0.00   939.27     0  01:53           0        11.9       0.153
  WS02006111           JUNCTION      0.00   938.90     0  01:53           0        11.9       0.031
  WS02006112           JUNCTION     30.57   969.33     0  01:53       0.112          12       0.254
  WS02006113           JUNCTION      0.00   939.32     0  01:53           0        11.9       0.083
  WS02006115           JUNCTION      0.00   969.71     0  01:53           0          12       0.172
  WS02006116           JUNCTION      0.00   970.68     0  01:53           0          12       0.149
  WS02006230           JUNCTION     10.28   534.56     0  06:53        0.29        8.86       0.155
  WS02006231           JUNCTION      0.00   524.03     0  06:53           0        8.57       0.092
  WS02006232           JUNCTION      0.00   524.29     0  06:53           0        8.58       0.182
  WS02006234           JUNCTION      0.00   524.63     0  06:53           0        8.59       0.081
  WS02006235           JUNCTION      0.00   525.06     0  06:53           0        8.67       0.105
  WS02006238           JUNCTION      0.00   418.62     0  05:50           0        5.21       0.142
  WS02006240           JUNCTION      0.00   417.55     0  04:30           0        5.18       0.209
  WS02006242           JUNCTION      0.00   417.36     0  04:30           0        5.17       0.258
  WS02006243           JUNCTION      0.00   417.14     0  04:30           0        5.15       0.224
  WS02006245           JUNCTION      0.00   416.59     0  04:30           0        5.15       0.171
  WS02006247           JUNCTION      0.00   416.72     0  05:50           0        5.14       0.129
  WS02006248           JUNCTION      0.00   417.32     0  05:50           0        5.16       0.074
  WS02006249           JUNCTION      0.00   495.19     0  02:20           0        5.95       0.155
  WS02006239           JUNCTION      0.00   418.12     0  05:50           0         5.2       0.198
  WS02006251           JUNCTION      0.08   494.07     0  02:20     0.00217        6.01       0.125
  WS02006252           JUNCTION      0.00   400.00     0  02:50           0        5.34       0.005
  WS02006253           JUNCTION      3.87   156.77     0  01:54      0.0129       0.665       0.419
  WS02006256           JUNCTION      0.00   983.00     0  02:00           0          12      -0.012
  WS02004138           JUNCTION      0.00   380.00     0  00:00           0        10.1       0.062
  WS02004139           JUNCTION      0.32   395.85     0  00:00     0.00905        10.1       0.455
  WS02004407           JUNCTION      0.00   973.72     0  01:53           0        11.8       0.066
  WS02006228           JUNCTION      0.00   938.16     0  01:53           0        11.9       0.125
  WS02006229           JUNCTION      0.00   994.76     0  01:52           0        11.9       0.117
  WS02006280           JUNCTION      0.00   736.09     0  01:54           0        3.11       0.013
  WS02006284           JUNCTION      0.10   735.83     0  01:54      0.0027        3.11       0.019
  WS02006287           JUNCTION      0.00   735.65     0  01:54           0        3.11       0.024
  WSF200               JUNCTION      0.00   958.27     0  01:56           0        11.7       0.041
  HS02004901           JUNCTION     37.34    37.34     0  01:51       0.136       0.136       1.311
  HS02004881           JUNCTION     14.85   153.29     0  01:54       0.053       0.601       0.109
  HS02004876           JUNCTION     26.74   139.06     0  01:54       0.103       0.549       0.099
  HS02004870           JUNCTION     27.42   112.65     0  01:54         0.1       0.446       0.025
  HS02004862           JUNCTION     26.01    86.18     0  01:54       0.116       0.346       0.050
  HS02004856           JUNCTION     20.52    60.23     0  01:54      0.0756       0.231       0.629
  HS02004852           JUNCTION      0.00    40.37     0  01:54           0       0.155       0.036
  HS02004848           JUNCTION     56.97    56.97     0  01:56       0.261       0.261       0.018
  HS02004842           JUNCTION      0.00    18.18     0  02:06           0       0.119      12.306
  HS02004837           JUNCTION     52.39    67.87     0  01:54       0.353       0.459       0.177
  HS02004830           JUNCTION      0.15    67.98     0  01:54     0.00423       0.449       0.275
  HS02004824           JUNCTION     66.79   134.68     0  01:56       0.318       0.767       0.071
  HS02004817           JUNCTION      0.60   136.87     0  01:57      0.0169       0.783       2.176
  HS02004807           JUNCTION     50.62   184.26     0  01:55       0.184       0.952       0.460
  HS02004802           JUNCTION      0.00   183.95     0  01:56           0        0.95       0.417
  HS02004799           JUNCTION     40.40   470.75     0  01:53        0.15        1.87       0.159
  HS02004792           JUNCTION    183.39   430.98     0  01:53       0.729        1.72       0.024
  HS02004788           JUNCTION     59.53   248.80     0  01:53       0.273       0.991       0.039
  HS02004785           JUNCTION      0.15   189.56     0  01:53     0.00423        0.72       0.070
  HS02004777           JUNCTION      0.03   189.71     0  01:52    0.000846        0.72       0.728
  HS02004770           JUNCTION    153.57   190.37     0  01:52       0.587       0.722       0.429
  HS02004480           JUNCTION      0.00   554.34     0  01:53           0        2.18       0.044
  HS02004479           JUNCTION      0.00    83.75     0  01:53           0       0.323       0.229
  HS02004478           JUNCTION      0.00   735.60     0  01:54           0        3.11       0.010
  YS02001745           JUNCTION    446.25   446.25     0  02:16        3.95        3.95       0.248
  YS02001748           JUNCTION      0.04   450.93     0  02:16     0.00127        3.95       0.583
  YS02001751           JUNCTION      0.01   450.85     0  02:16     0.00031        3.92       0.603
  YS02001754           JUNCTION      0.26   451.20     0  02:16     0.00733        3.91       0.630
  YS02001762           JUNCTION      0.00   434.49     0  01:55           0        2.23       0.952
  YS02001765           JUNCTION      0.00   435.58     0  01:55           0        2.23       1.092
  YS02001767           JUNCTION      0.54   434.92     0  01:55      0.0151        2.25       1.598
  YS02001770           JUNCTION    558.16   746.11     0  02:45        4.36        5.14       0.609
  YS02001774           JUNCTION      0.00   746.29     0  02:45           0        3.64       0.674
  YS02001779           JUNCTION      0.01   746.16     0  02:45    0.000141        3.61       0.427
  YS02001882           JUNCTION      0.00    63.81     0  01:48           0      0.0443       4.719
  YS02001884           JUNCTION      0.00    72.35     0  01:47           0      0.0839       8.146
  YS02001759           JUNCTION    542.57   876.49     0  01:56        4.04        5.47       0.416
  YS02001887           JUNCTION    676.21   676.86     0  02:12        4.57        4.61       0.193
  YS02001890           JUNCTION      0.00   677.53     0  02:12           0        4.55       0.206
  YS02001898           JUNCTION      0.00   525.06     0  01:51           0        4.28       0.076
  YS02001901           JUNCTION      0.00   525.50     0  01:51           0        4.27       0.161
  YS02001904           JUNCTION      0.00   526.86     0  01:51           0        4.27       0.143
  YS02001907           JUNCTION      0.00  1165.84     0  01:52           0        9.99       0.246
  YS02001910           JUNCTION      0.00   650.94     0  01:52           0        5.74       0.226
  YS02001915           JUNCTION    394.70   651.23     0  01:52        3.28        5.79       0.095
  YS02001918           JUNCTION      0.00   368.45     0  01:52           0        2.54       0.059
  YS02001619           JUNCTION    388.44   388.44     0  02:16         3.3         3.3       0.372
  YS02001629           JUNCTION      0.00   217.69     0  01:48           0        1.43       2.038
  YS02001641           JUNCTION      0.00   455.66     0  01:48           0        5.09       0.412
  YS02001644           JUNCTION    424.99  1594.18     0  02:44        3.82        13.6       0.192
  YS02001652           JUNCTION      0.00   514.95     0  02:10           0        3.45       0.671
  YS02001655           JUNCTION      0.15   513.61     0  02:10     0.00434        3.47       0.726
  YS02001920           JUNCTION      2.87   367.61     0  01:52      0.0809        2.52       0.112
  YS02001923           JUNCTION      0.04   300.88     0  01:53     0.00106        2.42       0.051
  YS02001926           JUNCTION      0.05   348.76     0  01:51     0.00147        2.39       0.130
  YS02001929           JUNCTION    206.66   206.66     0  03:01        2.37        2.38       0.023
  YS02001658           JUNCTION      0.00   516.29     0  02:10           0        3.49       0.691
  YS02001661           JUNCTION      0.00   750.29     0  01:56           0        3.94      -0.290
  YS02001664           JUNCTION    496.40   496.40     0  02:16        3.49        3.95       0.126
  YS02001622           JUNCTION      0.00   389.06     0  02:16           0        3.29       0.970
  YS02001633           JUNCTION    431.52   455.17     0  01:48        3.93        5.24       0.612
  YS02001649           JUNCTION      0.00  1005.35     0  01:49           0        7.26       0.509
  YS02001757           JUNCTION      0.00  2144.50     0  01:55           0        11.1       0.824
  YS02001895           JUNCTION      0.00   523.89     0  01:51           0        4.27       0.118
  YS02001625           JUNCTION      0.00   436.02     0  02:16           0        3.34       1.186
  YS02163301           JUNCTION      0.00   226.39     0  01:45           0        1.42       1.707
  YS02163601           JUNCTION      0.11   455.34     0  01:48      0.0031        5.11       0.587
  YS02164001           JUNCTION      0.00   455.15     0  01:48           0        5.09       0.393
  YS02001647           JUNCTION      0.00   832.50     0  02:45           0        6.31       0.448
  YSB1154              JUNCTION     46.91    46.91     0  01:52        0.18       0.181       0.806
  YSB6556              JUNCTION      0.00    46.64     0  01:52           0       0.182       0.696
  YSB1174              JUNCTION     39.22    39.22     0  01:50       0.134       0.134       0.962
  YSB1171              JUNCTION      0.00    84.02     0  01:52           0       0.322       2.011
  YS02006553           JUNCTION      0.00   717.63     0  03:35           0        7.29       0.213
  YS02006561           JUNCTION      0.00   982.50     0  02:16           0        11.5       0.005
  YS02006556           JUNCTION      0.00   717.68     0  03:35           0        7.29       0.154
  YS02006558           JUNCTION    590.63   983.52     0  02:12        4.24        11.5       0.044
  YS02001783           JUNCTION      0.00   982.96     0  02:09           0        11.5       0.023
  YS02001784           JUNCTION      1.06   985.00     0  02:10      0.0299        11.5       0.032
  YS02001786           JUNCTION      0.06   983.42     0  02:15     0.00159        11.5       0.030
  YS02001788           JUNCTION      0.07   983.66     0  02:11       0.002        11.5       0.019
  YS02001790           JUNCTION      0.15   983.91     0  02:13     0.00437        11.5       0.016
  YS02001791           JUNCTION      0.00   984.25     0  02:11           0        11.5       0.009
  YS02001793           JUNCTION      0.00   985.59     0  02:09           0        11.5      -0.031
  WSC                  OUTFALL       0.00  1347.96     0  02:02           0        22.2       0.000
  JK-storage           STORAGE       0.00   984.75     0  02:11           0        11.6      -9.401
  CC-storage           STORAGE       0.00  2147.02     0  01:55           0        8.76       0.699
  XR-storage           STORAGE    1054.62  1054.62     0  03:01        15.5        16.1       0.000
  
  
  **********************
  Node Surcharge Summary
  **********************
  
  Surcharging occurs when water rises above the top of the highest conduit.
  ---------------------------------------------------------------------
                                               Max. Height   Min. Depth
                                   Hours       Above Crown    Below Rim
  Node                 Type      Surcharged         Meters       Meters
  ---------------------------------------------------------------------
  WS02004401           JUNCTION        1.18          0.313        1.347
  WS02004402           JUNCTION        1.26          0.297        1.443
  WS02004403           JUNCTION        1.28          0.269        1.761
  WS02004404           JUNCTION        1.58          0.311        2.469
  WS02004406           JUNCTION        1.54          0.206        2.244
  WS02004413           JUNCTION        0.46          0.032        2.168
  WS02004405           JUNCTION        1.56          0.279        2.521
  WS02006109           JUNCTION        4.35          0.939        0.881
  WS02006110           JUNCTION        3.12          0.637        1.213
  WS02006111           JUNCTION        0.34          0.202        1.668
  WS02006112           JUNCTION        3.40          0.662        1.018
  WS02006113           JUNCTION        0.38          0.264        1.666
  WS02006115           JUNCTION        0.73          0.308        1.942
  WS02006116           JUNCTION        0.75          0.292        1.998
  WS02006230           JUNCTION        2.81          0.909        0.661
  WS02006231           JUNCTION        3.34          0.914        0.616
  WS02006232           JUNCTION        4.38          1.014        0.466
  WS02006234           JUNCTION        3.77          0.876        0.364
  WS02006235           JUNCTION        4.06          0.895        0.395
  WS02006238           JUNCTION        4.16          0.895        0.535
  WS02006240           JUNCTION        3.77          0.733        0.657
  WS02006242           JUNCTION        3.90          0.729        0.091
  WS02006243           JUNCTION        3.58          0.590        0.180
  WS02006245           JUNCTION        3.47          0.515        0.335
  WS02006247           JUNCTION        3.49          0.535        0.225
  WS02006248           JUNCTION        3.10          0.380        0.000
  WS02006249           JUNCTION        3.19          0.390        0.000
  WS02006239           JUNCTION        3.83          0.799        0.491
  WS02006251           JUNCTION        2.12          0.354        0.826
  WS02006252           JUNCTION        3.54          0.512        0.588
  WS02006253           JUNCTION        2.34          0.415        2.065
  WS02006256           JUNCTION        6.97          2.050        0.000
  WS02006228           JUNCTION        4.30          1.111        1.089
  HS02004817           JUNCTION        0.14          0.011        1.729
  YS02001748           JUNCTION        6.04          0.325        0.865
  YS02001751           JUNCTION        6.09          0.593        0.607
  YS02001754           JUNCTION        6.14          0.810        0.340
  YS02001762           JUNCTION        6.19          1.056        0.094
  YS02001765           JUNCTION        6.18          0.999        0.101
  YS02001767           JUNCTION        6.18          0.958        0.072
  YS02001770           JUNCTION        6.18          0.909        0.011
  YS02001774           JUNCTION        6.19          0.992        0.058
  YS02001779           JUNCTION        6.12          0.680        0.000
  YS02001882           JUNCTION        1.80          0.830        0.000
  YS02001884           JUNCTION        1.82          0.870        0.000
  YS02001759           JUNCTION        6.20          1.094        0.116
  YS02001887           JUNCTION        1.87          0.889        0.061
  YS02001890           JUNCTION        1.89          0.760        0.000
  YS02001898           JUNCTION        1.77          0.537        0.203
  YS02001901           JUNCTION        1.85          0.678        0.192
  YS02001904           JUNCTION        1.83          0.638        0.212
  YS02001907           JUNCTION        2.40          0.950        0.000
  YS02001910           JUNCTION        1.93          0.852        0.248
  YS02001915           JUNCTION        1.79          0.708        0.292
  YS02001918           JUNCTION        1.65          0.491        0.319
  YS02001619           JUNCTION        6.09          0.577        0.033
  YS02001629           JUNCTION        6.08          0.470        0.000
  YS02001641           JUNCTION        6.18          0.935        0.165
  YS02001644           JUNCTION        6.18          0.920        0.000
  YS02001652           JUNCTION        6.15          1.085        0.045
  YS02001655           JUNCTION        6.10          1.028        0.172
  YS02001920           JUNCTION        1.68          0.630        0.510
  YS02001923           JUNCTION        0.01          0.213        0.607
  YS02001926           JUNCTION        0.01          0.365        0.535
  YS02001658           JUNCTION        6.05          0.970        0.330
  YS02001661           JUNCTION        0.15          0.970        0.420
  YS02001622           JUNCTION        6.10          0.572        0.048
  YS02001633           JUNCTION        6.17          0.928        0.132
  YS02001649           JUNCTION        6.19          1.050        0.000
  YS02001757           JUNCTION        6.23          1.195        0.015
  YS02001895           JUNCTION        1.78          0.567        0.183
  YS02001625           JUNCTION        6.15          0.780        0.000
  YS02163301           JUNCTION        6.17          0.886        0.144
  YS02163601           JUNCTION        6.20          0.990        0.090
  YS02164001           JUNCTION        6.17          0.919        0.181
  YS02001647           JUNCTION        6.15          0.800        0.100
  YS02006553           JUNCTION        2.47          0.971        0.219
  YS02006561           JUNCTION        1.69          0.582        0.568
  YS02006556           JUNCTION        2.10          0.893        0.457
  YS02006558           JUNCTION        2.07          0.879        0.521
  YS02001783           JUNCTION        1.93          0.904        0.696
  YS02001784           JUNCTION        1.91          0.762        0.728
  YS02001786           JUNCTION        1.85          0.565        0.865
  YS02001788           JUNCTION        1.80          0.577        0.903
  YS02001790           JUNCTION        2.65          1.157        0.000
  YS02001791           JUNCTION        2.73          1.920        0.000
  YS02001793           JUNCTION        2.99          1.672        0.928
  
  
  *********************
  Node Flooding Summary
  *********************
  
  Flooding refers to all water that overflows a node, whether it ponds or not.
  --------------------------------------------------------------------------
                                                             Total   Maximum
                                 Maximum   Time of Max       Flood    Ponded
                        Hours       Rate    Occurrence      Volume     Depth
  Node                 Flooded       LPS   days hr:min    10^6 ltr    Meters
  --------------------------------------------------------------------------
  WS02006248              0.22     65.57      0  01:54       0.022     0.000
  WS02006249              2.22    312.83      0  02:20       0.783     0.000
  WS02006256              4.59    828.78      0  02:00       8.477     0.000
  YS02001779              3.44    746.16      0  02:45       3.591     0.000
  YS02001882              0.01      8.05      0  01:48       0.000     0.000
  YS02001884              0.01      6.97      0  01:48       0.000     0.000
  YS02001890              0.81    161.25      0  02:12       0.273     0.000
  YS02001907              1.53    715.14      0  02:16       2.680     0.000
  YS02001629              0.01     28.48      0  01:46       0.000     0.000
  YS02001644              5.00   1594.18      0  02:44      11.884     0.000
  YS02001649              0.02     31.57      0  03:48       0.000     0.000
  YS02001625              2.16    435.96      0  02:16       1.968     0.000
  YS02001790              0.01    190.54      0  04:42       0.000     0.000
  YS02001791              0.01    166.13      0  04:41       0.000     0.000
  JK-storage              0.84    575.22      0  01:49       0.782     0.000
  XR-storage              4.67    674.55      0  03:01       5.096     0.000
  
  
  **********************
  Storage Volume Summary
  **********************
  
  --------------------------------------------------------------------------------------------------
                         Average     Avg  Evap Exfil       Maximum     Max    Time of Max    Maximum
                          Volume    Pcnt  Pcnt  Pcnt        Volume    Pcnt     Occurrence    Outflow
  Storage Unit           1000 m3    Full  Loss  Loss       1000 m3    Full    days hr:min        LPS
  --------------------------------------------------------------------------------------------------
  JK-storage               0.160      55     0     0         0.291     100       0  01:44     983.00
  CC-storage               3.363      21     0     0         4.039      26       0  02:43     400.00
  XR-storage               0.857      92     0     0         0.926     100       0  02:07     380.00
  
  
  ***********************
  Outfall Loading Summary
  ***********************
  
  ---------------------------------------------------------------------------------------------------------------------------------
                         Flow       Avg       Max       Total         Total         Total         Total         Total         Total
                         Freq      Flow      Flow      Volume           COD            SS            TN            TP         NH4-N
  Outfall Node           Pcnt       LPS       LPS    10^6 ltr            kg            kg            kg            kg            kg
  ---------------------------------------------------------------------------------------------------------------------------------
  WSC                   99.98    851.74   1347.96      22.205      2684.258      4801.752       144.495        16.448        85.929
  ---------------------------------------------------------------------------------------------------------------------------------
  System                99.98    851.74   1347.96      22.205      2684.258      4801.752       144.495        16.448        85.929
  
  
  ********************
  Link Flow Summary
  ********************
  
  -----------------------------------------------------------------------------
                                 Maximum  Time of Max   Maximum    Max/    Max/
                                  |Flow|   Occurrence   |Veloc|    Full    Full
  Link                 Type          LPS  days hr:min     m/sec    Flow   Depth
  -----------------------------------------------------------------------------
  WS02003066WSF200     CONDUIT    958.27     0  01:56      3.01    0.16    0.33
  WS02006287WS02006284 CONDUIT    735.74     0  01:54      2.45    0.34    0.41
  WS02006284WS02006280 CONDUIT    736.09     0  01:54      2.68    0.31    0.38
  WS02006280WS02006229 CONDUIT    740.92     0  01:52      4.20    0.16    0.58
  WS02006229WS02006228 CONDUIT    938.16     0  01:53      1.87    3.11    1.00
  WS02006256WS02006235 CONDUIT    288.92     0  00:00      4.23    3.06    1.00
  WS02006253WS02006251 CONDUIT    169.88     0  01:51      0.74    0.51    1.00
  WS02006252WS02006251 CONDUIT    403.80     0  06:53      3.21    1.48    1.00
  WS02006251WS02006249 CONDUIT    495.19     0  02:20      1.29    1.43    1.00
  WS02006249WS02006248 CONDUIT    417.32     0  05:50      1.13    2.29    1.00
  WS02006248WS02006247 CONDUIT    416.72     0  05:50      1.10    0.91    1.00
  WS02006247WS02006245 CONDUIT    416.59     0  04:30      1.08    3.30    1.00
  WS02006245WS02006243 CONDUIT    417.14     0  04:30      1.08    1.23    1.00
  WS02006243WS02006242 CONDUIT    417.36     0  04:30      1.08    0.89    1.00
  WS02006242WS02006240 CONDUIT    417.55     0  04:30      1.08    1.66    1.00
  WS02006240WS02006239 CONDUIT    418.12     0  05:50      1.09    1.32    1.00
  WS02006239WS02006238 CONDUIT    418.62     0  05:50      1.09    1.34    1.00
  WS02006238WS02006235 CONDUIT    420.38     0  05:50      1.45    0.94    1.00
  WS02006235WS02006234 CONDUIT    524.63     0  06:53      1.36    5.54    1.00
  WS02006234WS02006232 CONDUIT    524.29     0  06:53      1.39    1.06    1.00
  WS02006232WS02006231 CONDUIT    524.03     0  06:53      1.36    1.10    1.00
  WS02006231WS02006230 CONDUIT    524.29     0  06:53      1.36    7.95    1.00
  WS02006230WS02006229 CONDUIT    537.16     0  06:53      1.40   11.95    1.00
  WS02006228WS02006109 CONDUIT    938.32     0  01:53      1.87    4.10    1.00
  WS02006116WS02004401 CONDUIT    971.09     0  01:53      1.24    1.34    1.00
  WS02006115WS02006116 CONDUIT    970.68     0  01:53      1.24    1.25    1.00
  WS02006113WS02006111 CONDUIT    938.90     0  01:53      2.64    1.13    1.00
  WS02006112WS02006115 CONDUIT    969.71     0  01:53      1.23    0.57    1.00
  WS02006111WS02006112 CONDUIT    939.31     0  01:53      1.87    0.45    1.00
  WS02006110WS02006113 CONDUIT    939.32     0  01:53      1.87    0.85    1.00
  WS02006109WS02006110 CONDUIT    939.27     0  01:53      1.87    1.81    1.00
  WS02004411WS02004412 CONDUIT    957.75     0  01:55      1.26    1.36    0.93
  WS02004401WS02004402 CONDUIT    970.70     0  01:53      1.24    1.17    1.00
  WS02004413WS02003067 CONDUIT    957.84     0  01:55      1.58    0.41    0.72
  WS02004412WS02004413 CONDUIT    957.90     0  01:55      1.24    0.64    0.96
  WS02004410WS02004411 CONDUIT    956.21     0  01:55      1.24    1.31    0.95
  WS02004409WS02004410 CONDUIT    959.05     0  01:54      1.24    1.24    0.97
  WS02004407WS02004409 CONDUIT    971.35     0  01:53      1.74    0.34    0.69
  WS02004406WS02004407 CONDUIT    973.72     0  01:53      1.65    0.44    0.70
  WS02004405WS02004406 CONDUIT    973.25     0  01:53      1.24    1.92    1.00
  WS02004404WS02004405 CONDUIT    973.78     0  01:53      1.24    9.54    1.00
  WS02004403WS02004404 CONDUIT    972.07     0  01:53      1.24    0.70    1.00
  WS02004402WS02004403 CONDUIT    971.63     0  01:53      1.24    1.40    1.00
  WS02004139WS02001211 CONDUIT    382.40     0  02:43      0.90    0.48    0.64
  WS02004138WS02004139 CONDUIT    395.52     0  00:00      3.64    0.08    0.47
  WS02003067WS02003066 CONDUIT    958.20     0  01:55      1.67    0.31    0.51
  WS02001213WS02003059 CONDUIT    397.01     0  02:42      0.89    0.66    0.88
  WS02001212WS02001213 CONDUIT    394.23     0  02:42      1.32    0.61    0.56
  WS02001211WS02001212 CONDUIT    392.14     0  02:42      0.78    0.30    0.72
  WS02003072WS02003073 CONDUIT   1345.56     0  02:01      1.97    2.91    0.58
  WS02003069WS02003072 CONDUIT   1345.19     0  02:01      1.82    0.65    0.62
  WS02003060WS02003069 CONDUIT   1344.88     0  02:00      2.03    0.53    0.57
  WS02003059WS02003060 CONDUIT    400.61     0  07:46      0.95    0.26    0.78
  HS02004901HS02004770 CONDUIT     36.84     0  01:52      0.10    0.14    0.54
  HS02004876HS02004881 CONDUIT    139.08     0  01:54      1.26    1.48    0.16
  HS02004870HS02004876 CONDUIT    112.62     0  01:54      0.85    0.07    0.19
  HS02004842HS02004848 CONDUIT     18.18     0  02:06      0.08    0.01    0.34
  HS02004837HS02004842 CONDUIT     18.64     0  02:07      0.42    0.01    0.35
  HS02004830HS02004837 CONDUIT     67.83     0  01:54      0.68    0.07    0.14
  HS02004824HS02004830 CONDUIT     68.03     0  01:56      0.62    0.09    0.18
  HS02004817HS02004824 CONDUIT    136.27     0  01:57      0.32    0.06    0.60
  HS02004770HS02004777 CONDUIT    189.68     0  01:52      0.49    0.35    0.55
  HS02004799HS02004480 CONDUIT    470.64     0  01:53      1.09    0.59    0.62
  HS02004792HS02004799 CONDUIT    430.88     0  01:53      1.22    0.26    0.50
  HS02004788HS02004792 CONDUIT    248.73     0  01:54      1.29    0.16    0.28
  HS02004785HS02004788 CONDUIT    189.53     0  01:53      0.92    1.43    0.30
  HS02004777HS02004785 CONDUIT    189.41     0  01:53      0.59    0.23    0.46
  HS02004480HS02004478 CONDUIT    554.37     0  01:53      1.59    2.33    0.50
  HS02004479HS02004480 CONDUIT     83.71     0  01:53      0.37    0.08    0.59
  HS02004862HS02004870 CONDUIT     86.18     0  01:55      0.82    0.09    0.15
  HS02004848HS02004852 CONDUIT     40.37     0  01:54      0.54    0.05    0.11
  HS02004856HS02004862 CONDUIT     60.18     0  01:54      0.61    0.06    0.14
  HS02004852HS02004856 CONDUIT     40.43     0  01:55      0.35    0.05    0.17
  HS02004802HS02004478 CONDUIT    184.71     0  01:57      0.53    0.16    0.50
  HS02004478WS02006287 CONDUIT    735.65     0  01:54      2.18    0.21    0.38
  HS02004817HS02004807 CONDUIT    137.06     0  01:57      0.26    0.08    0.77
  HS02004807HS02004802 CONDUIT    183.95     0  01:56      0.47    0.35    0.56
  YS02001759YS02001757 CONDUIT    876.24     0  01:57      1.12    0.62    1.00
  YS02001762YS02001759 CONDUIT    433.48     0  01:55      0.55    0.50    1.00
  YS02001765YS02001762 CONDUIT    434.49     0  01:55      0.55    0.41    1.00
  YS02001770YS02001767 CONDUIT    434.39     0  01:55      0.55    1.72    1.00
  YS02001774YS02001770 CONDUIT    746.29     0  02:45      0.95    0.48    1.00
  YS02001779YS02001774 CONDUIT    746.16     0  02:45      0.95    0.38    1.00
  YS02001649YS02001757 CONDUIT   1005.01     0  01:49      1.28    0.61    1.00
  YS02001767YS02001765 CONDUIT    435.58     0  01:55      0.55    0.55    1.00
  YS02006561YS02001783 CONDUIT    982.96     0  02:09      2.15    0.51    1.00
  YS02001783YS02001784 CONDUIT    983.94     0  02:10      1.96    1.36    1.00
  YS02001784YS02001785 CONDUIT    983.36     0  02:15      1.96    2.29    1.00
  YS02001788YS02001790 CONDUIT    983.76     0  02:13      2.44    0.73    1.00
  YS02001790YS02001791 CONDUIT    984.25     0  02:11      2.91    1.07    1.00
  YS02001791YS02001793 CONDUIT    985.59     0  02:09      5.78    0.42    1.00
  YS02001910YS02001907 CONDUIT    651.42     0  01:52      0.83    0.37    1.00
  YS02001786YS02001788 CONDUIT    983.59     0  02:11      2.31    1.90    1.00
  YS02001915YS02001910 CONDUIT    650.94     0  01:52      0.83    0.32    1.00
  YS02001918YS02001915 CONDUIT    370.69     0  01:52      0.48    0.20    1.00
  YS02001923YS02001920 CONDUIT    364.74     0  01:52      0.82    0.16    1.00
  YS02001926YS02001923 CONDUIT    315.57     0  01:51      0.92    0.45    1.00
  YS02001929YS02001926 CONDUIT    248.72     0  01:52      0.98    0.12    0.99
  YS02001920YS02001918 CONDUIT    368.45     0  01:52      0.77    0.36    1.00
  YS02001629YS02163301 CONDUIT    226.39     0  01:45      0.29    0.28    1.00
  YS02001619YS02001622 CONDUIT    389.06     0  02:16      0.74    0.57    1.00
  YS02001622YS02001625 CONDUIT    388.61     0  02:16      0.49    0.21    1.00
  YS02001625YS02001629 CONDUIT    217.69     0  01:48      0.29    0.10    1.00
  YS02163301YS02001633 CONDUIT    227.95     0  01:45      0.29    0.21    1.00
  YS02163601YS02164001 CONDUIT    455.15     0  01:48      0.58    0.40    1.00
  YS02164001YS02001641 CONDUIT    455.66     0  01:48      0.58    0.62    1.00
  YS02001641YS02001644 CONDUIT    455.59     0  01:48      0.58    1.47    1.00
  YS02001647YS02001649 CONDUIT    832.50     0  02:45      1.06    0.44    1.00
  YS02006553YS02006556 CONDUIT    717.68     0  03:35      0.91    0.61    1.00
  YS02006556YS02006558 CONDUIT    717.78     0  03:35      0.91    0.57    1.00
  YSB6556YSB1171       CONDUIT     46.62     0  01:54      0.14    0.05    0.84
  YS02001907YS02006553 CONDUIT    717.63     0  03:35      0.80    0.84    1.00
  YS02006558YS02006561 CONDUIT    982.50     0  02:16      3.47    2.17    1.00
  YS02001633YS02163601 CONDUIT    455.23     0  01:48      0.58    0.48    1.00
  YS02001644YS02001647 CONDUIT    832.50     0  02:45      1.06    0.49    1.00
  YS02001745YS02001748 CONDUIT    450.89     0  02:16      1.67    0.17    0.98
  YS02001748YS02001751 CONDUIT    450.84     0  02:16      1.21    0.23    1.00
  YS02001751YS02001754 CONDUIT    450.94     0  02:16      1.02    0.22    1.00
  YS02001754YS02001757 CONDUIT    451.99     0  02:16      0.58    0.18    1.00
  YS02001882YS02001884 CONDUIT     63.81     0  01:48      0.16    0.07    1.00
  YS02001884YS02001887 CONDUIT     72.35     0  01:47      0.12    0.10    1.00
  YS02001890YS02001895 CONDUIT    523.89     0  01:51      0.67    0.24    1.00
  YS02001895YS02001898 CONDUIT    525.06     0  01:51      0.67    0.91    1.00
  YS02001898YS02001901 CONDUIT    525.50     0  01:51      0.67    0.34    1.00
  YS02001901YS02001904 CONDUIT    526.86     0  01:51      0.67    0.82    1.00
  YS02001904YS02001907 CONDUIT    526.11     0  01:51      0.67    0.18    1.00
  YS02001887YS02001890 CONDUIT    677.53     0  02:12      0.86    1.16    1.00
  YS02001652YS02001649 CONDUIT    516.90     0  02:10      0.71    0.26    1.00
  YS02001655YS02001652 CONDUIT    514.95     0  02:10      1.09    0.25    1.00
  YS02001658YS02001655 CONDUIT    513.45     0  02:10      1.41    0.22    1.00
  YS02001661YS02001658 CONDUIT    516.29     0  02:10      1.78    0.20    1.00
  YS02001664YS02001661 CONDUIT    750.29     0  01:56      1.69    0.24    0.77
  YSB1154YSB6556       CONDUIT     46.64     0  01:52      0.16    0.08    0.75
  YSB1174YSB1171       CONDUIT     38.37     0  01:50      0.11    0.06    0.87
  YSB1171HS02004479    CONDUIT     83.75     0  01:53      0.54    0.06    0.70
  HS02004881HS02006253 CONDUIT    153.29     0  01:54      2.70    0.03    0.54
  YS02001793JiankangQianchi CONDUIT    984.75     0  02:11     16.73    0.08    1.00
  YS02001757CaochengTiaoxuchi CONDUIT   2147.02     0  01:55      3.55    0.94    1.00
  WSF200WS02003060     CONDUIT    958.75     0  01:55      1.98    0.21    0.45
  1                    CONDUIT   1347.96     0  02:02      3.60    0.47    0.48
  CC-Pump-1            PUMP       200.00     0  02:20              1.00
  CC-Pump-2            PUMP       200.00     0  02:50              1.00
  JK-Pump-1            PUMP       300.00     0  00:00              1.00
  JK-Pump-2            PUMP       683.00     0  02:00              1.00
  XR-Pump-1            PUMP        95.00     0  00:00              1.00
  XR-Pump-2            PUMP        95.00     0  00:00              1.00
  XR-Pump-3            PUMP        95.00     0  00:00              1.00
  XR-Pump-4            PUMP        95.00     0  00:00              1.00
  
  
  ***************************
  Flow Classification Summary
  ***************************
  
  -------------------------------------------------------------------------------------
                      Adjusted    ---------- Fraction of Time in Flow Class ---------- 
                       /Actual         Up    Down  Sub   Sup   Up    Down  Norm  Inlet 
  Conduit               Length    Dry  Dry   Dry   Crit  Crit  Crit  Crit  Ltd   Ctrl  
  -------------------------------------------------------------------------------------
  WS02003066WSF200        1.00   0.01  0.02  0.00  0.00  0.97  0.00  0.00  0.45  0.00
  WS02006287WS02006284    1.00   0.03  0.01  0.00  0.64  0.32  0.00  0.00  0.63  0.00
  WS02006284WS02006280    1.00   0.04  0.00  0.00  0.00  0.00  0.00  0.96  0.00  0.00
  WS02006280WS02006229    1.00   0.04  0.00  0.00  0.02  0.03  0.00  0.91  0.02  0.00
  WS02006229WS02006228    1.00   0.00  0.00  0.00  1.00  0.00  0.00  0.00  0.00  0.00
  WS02006256WS02006235    1.00   0.00  0.00  0.00  1.00  0.00  0.00  0.00  0.00  0.00
  WS02006253WS02006251    1.00   0.02  0.02  0.00  0.96  0.00  0.01  0.00  0.00  0.00
  WS02006252WS02006251    1.00   0.09  0.00  0.00  0.20  0.00  0.71  0.00  0.00  0.00
  WS02006251WS02006249    1.00   0.00  0.00  0.00  1.00  0.00  0.00  0.00  0.16  0.00
  WS02006249WS02006248    1.00   0.00  0.01  0.00  0.94  0.00  0.05  0.00  0.00  0.00
  WS02006248WS02006247    1.00   0.01  0.00  0.00  0.99  0.00  0.00  0.00  0.07  0.00
  WS02006247WS02006245    1.00   0.00  0.00  0.00  0.99  0.00  0.00  0.00  0.00  0.00
  WS02006245WS02006243    1.00   0.00  0.00  0.00  0.97  0.00  0.00  0.03  0.00  0.00
  WS02006243WS02006242    1.00   0.00  0.00  0.00  1.00  0.00  0.00  0.00  0.17  0.00
  WS02006242WS02006240    1.00   0.00  0.00  0.00  1.00  0.00  0.00  0.00  0.00  0.00
  WS02006240WS02006239    1.00   0.00  0.00  0.00  0.96  0.00  0.00  0.04  0.01  0.00
  WS02006239WS02006238    1.00   0.00  0.00  0.00  1.00  0.00  0.00  0.00  0.10  0.00
  WS02006238WS02006235    1.00   0.00  0.00  0.00  1.00  0.00  0.00  0.00  0.00  0.00
  WS02006235WS02006234    1.00   0.00  0.00  0.00  0.97  0.00  0.03  0.00  0.00  0.00
  WS02006234WS02006232    1.00   0.00  0.00  0.00  1.00  0.00  0.00  0.00  0.06  0.00
  WS02006232WS02006231    1.00   0.00  0.00  0.00  1.00  0.00  0.00  0.00  0.00  0.00
  WS02006231WS02006230    1.00   0.00  0.00  0.00  0.76  0.00  0.23  0.00  0.00  0.00
  WS02006230WS02006229    1.00   0.00  0.00  0.00  1.00  0.00  0.00  0.00  0.00  0.00
  WS02006228WS02006109    1.00   0.00  0.00  0.00  1.00  0.00  0.00  0.00  0.00  0.00
  WS02006116WS02004401    1.00   0.01  0.00  0.00  0.99  0.00  0.00  0.00  0.00  0.00
  WS02006115WS02006116    1.00   0.01  0.00  0.00  0.99  0.00  0.00  0.00  0.00  0.00
  WS02006113WS02006111    1.00   0.01  0.00  0.00  0.06  0.93  0.00  0.00  0.13  0.00
  WS02006112WS02006115    1.00   0.01  0.00  0.00  0.99  0.00  0.00  0.00  0.00  0.00
  WS02006111WS02006112    1.00   0.01  0.00  0.00  0.99  0.00  0.00  0.00  0.78  0.00
  WS02006110WS02006113    1.00   0.00  0.00  0.00  0.99  0.00  0.00  0.00  0.00  0.00
  WS02006109WS02006110    1.00   0.00  0.00  0.00  0.99  0.00  0.00  0.00  0.00  0.00
  WS02004411WS02004412    1.00   0.02  0.00  0.00  0.98  0.00  0.00  0.00  0.00  0.00
  WS02004401WS02004402    1.00   0.01  0.00  0.00  0.99  0.00  0.00  0.00  0.00  0.00
  WS02004413WS02003067    1.00   0.02  0.01  0.00  0.00  0.00  0.98  0.00  0.00  0.00
  WS02004412WS02004413    1.00   0.02  0.00  0.00  0.98  0.00  0.00  0.00  0.01  0.00
  WS02004410WS02004411    1.00   0.02  0.00  0.00  0.98  0.00  0.00  0.00  0.00  0.00
  WS02004409WS02004410    1.00   0.02  0.00  0.00  0.98  0.00  0.00  0.00  0.02  0.00
  WS02004407WS02004409    1.00   0.02  0.00  0.00  0.98  0.00  0.00  0.00  0.95  0.00
  WS02004406WS02004407    1.00   0.00  0.01  0.00  0.98  0.00  0.00  0.00  0.00  0.00
  WS02004405WS02004406    1.00   0.00  0.00  0.00  1.00  0.00  0.00  0.00  0.00  0.00
  WS02004404WS02004405    1.00   0.00  0.00  0.00  1.00  0.00  0.00  0.00  0.00  0.00
  WS02004403WS02004404    1.00   0.00  0.01  0.00  0.99  0.00  0.00  0.00  0.00  0.00
  WS02004402WS02004403    1.00   0.01  0.00  0.00  0.99  0.00  0.00  0.00  0.00  0.00
  WS02004139WS02001211    1.00   0.00  0.00  0.00  1.00  0.00  0.00  0.00  0.00  0.00
  WS02004138WS02004139    1.00   0.00  0.00  0.00  1.00  0.00  0.00  0.00  1.00  0.00
  WS02003067WS02003066    1.00   0.02  0.00  0.00  0.97  0.00  0.00  0.00  0.00  0.00
  WS02001213WS02003059    1.00   0.00  0.00  0.00  1.00  0.00  0.00  0.00  0.00  0.00
  WS02001212WS02001213    1.00   0.00  0.00  0.00  0.94  0.00  0.06  0.00  0.00  0.00
  WS02001211WS02001212    1.00   0.00  0.00  0.00  1.00  0.00  0.00  0.00  0.00  0.00
  WS02003072WS02003073    1.00   0.00  0.00  0.00  0.00  0.00  0.00  1.00  0.00  0.00
  WS02003069WS02003072    1.00   0.00  0.00  0.00  1.00  0.00  0.00  0.00  0.09  0.00
  WS02003060WS02003069    1.00   0.00  0.00  0.00  0.99  0.01  0.00  0.00  0.07  0.00
  WS02003059WS02003060    1.00   0.00  0.00  0.00  1.00  0.00  0.00  0.00  0.01  0.00
  HS02004901HS02004770    1.00   0.03  0.00  0.00  0.97  0.00  0.00  0.00  0.00  0.00
  HS02004876HS02004881    1.00   0.01  0.00  0.00  0.90  0.09  0.00  0.00  0.00  0.00
  HS02004870HS02004876    1.00   0.00  0.00  0.00  0.99  0.00  0.00  0.00  0.95  0.00
  HS02004842HS02004848    1.00   0.00  0.03  0.00  0.96  0.00  0.00  0.00  0.56  0.00
  HS02004837HS02004842    1.00   0.00  0.00  0.00  1.00  0.00  0.00  0.00  0.11  0.00
  HS02004830HS02004837    1.00   0.00  0.00  0.00  1.00  0.00  0.00  0.00  0.99  0.00
  HS02004824HS02004830    1.00   0.00  0.00  0.00  1.00  0.00  0.00  0.00  0.03  0.00
  HS02004817HS02004824    1.00   0.00  0.00  0.00  1.00  0.00  0.00  0.00  0.92  0.00
  HS02004770HS02004777    1.00   0.00  0.03  0.00  0.97  0.00  0.00  0.00  0.02  0.00
  HS02004799HS02004480    1.00   0.00  0.01  0.00  0.96  0.00  0.03  0.00  0.00  0.00
  HS02004792HS02004799    1.00   0.00  0.00  0.00  1.00  0.00  0.00  0.00  0.98  0.00
  HS02004788HS02004792    1.00   0.00  0.00  0.00  1.00  0.00  0.00  0.00  0.98  0.00
  HS02004785HS02004788    1.00   0.00  0.00  0.00  1.00  0.00  0.00  0.00  0.00  0.00
  HS02004777HS02004785    1.00   0.00  0.00  0.00  1.00  0.00  0.00  0.00  0.11  0.00
  HS02004480HS02004478    1.00   0.04  0.00  0.00  0.71  0.00  0.00  0.26  0.00  0.00
  HS02004479HS02004480    1.00   0.01  0.00  0.00  0.99  0.00  0.00  0.00  0.11  0.00
  HS02004862HS02004870    1.00   0.00  0.00  0.00  1.00  0.00  0.00  0.00  0.03  0.00
  HS02004848HS02004852    1.00   0.04  0.00  0.00  0.96  0.00  0.00  0.00  0.79  0.00
  HS02004856HS02004862    1.00   0.00  0.04  0.00  0.96  0.00  0.00  0.00  0.84  0.00
  HS02004852HS02004856    1.00   0.03  0.00  0.00  0.96  0.00  0.00  0.00  0.77  0.00
  HS02004802HS02004478    1.00   0.04  0.00  0.00  0.96  0.00  0.00  0.00  0.02  0.00
  HS02004478WS02006287    1.00   0.04  0.00  0.00  0.78  0.18  0.00  0.00  0.62  0.00
  HS02004817HS02004807    1.00   0.00  0.04  0.00  0.96  0.00  0.00  0.00  0.01  0.00
  HS02004807HS02004802    1.00   0.04  0.00  0.00  0.96  0.00  0.00  0.00  0.00  0.00
  YS02001759YS02001757    1.00   0.00  0.00  0.00  1.00  0.00  0.00  0.00  0.15  0.00
  YS02001762YS02001759    1.00   0.00  0.00  0.00  1.00  0.00  0.00  0.00  0.02  0.00
  YS02001765YS02001762    1.00   0.00  0.00  0.00  1.00  0.00  0.00  0.00  0.13  0.00
  YS02001770YS02001767    1.00   0.00  0.00  0.00  1.00  0.00  0.00  0.00  0.00  0.00
  YS02001774YS02001770    1.00   0.00  0.04  0.00  0.96  0.00  0.00  0.00  0.02  0.00
  YS02001779YS02001774    1.00   0.00  0.00  0.00  1.00  0.00  0.00  0.00  0.17  0.00
  YS02001649YS02001757    1.00   0.00  0.00  0.00  1.00  0.00  0.00  0.00  0.15  0.00
  YS02001767YS02001765    1.00   0.00  0.00  0.00  1.00  0.00  0.00  0.00  0.00  0.00
  YS02006561YS02001783    1.00   0.05  0.00  0.00  0.41  0.54  0.00  0.00  0.42  0.00
  YS02001783YS02001784    1.00   0.00  0.05  0.00  0.95  0.00  0.00  0.00  0.00  0.00
  YS02001784YS02001785    1.00   0.00  0.00  0.00  1.00  0.00  0.00  0.00  0.16  0.00
  YS02001788YS02001790    1.00   0.00  0.00  0.00  0.46  0.54  0.00  0.00  0.35  0.00
  YS02001790YS02001791    1.00   0.00  0.00  0.00  0.44  0.56  0.00  0.00  0.41  0.00
  YS02001791YS02001793    1.00   0.00  0.00  0.00  0.46  0.53  0.00  0.00  0.02  0.00
  YS02001910YS02001907    1.00   0.00  0.00  0.00  0.99  0.00  0.00  0.01  0.12  0.00
  YS02001786YS02001788    1.00   0.00  0.00  0.00  0.44  0.56  0.00  0.00  0.00  0.00
  YS02001915YS02001910    1.00   0.00  0.00  0.00  0.99  0.01  0.00  0.00  0.13  0.00
  YS02001918YS02001915    1.00   0.00  0.00  0.00  0.99  0.01  0.00  0.00  0.50  0.00
  YS02001923YS02001920    1.00   0.00  0.00  0.00  1.00  0.00  0.00  0.00  0.74  0.00
  YS02001926YS02001923    1.00   0.00  0.02  0.00  0.22  0.00  0.76  0.00  0.00  0.00
  YS02001929YS02001926    1.00   0.00  0.03  0.00  0.97  0.00  0.00  0.00  0.65  0.00
  YS02001920YS02001918    1.00   0.00  0.00  0.00  1.00  0.00  0.00  0.00  0.00  0.00
  YS02001629YS02163301    1.00   0.04  0.00  0.00  0.96  0.00  0.00  0.00  0.00  0.00
  YS02001619YS02001622    1.00   0.03  0.00  0.00  0.97  0.00  0.00  0.00  0.00  0.00
  YS02001622YS02001625    1.00   0.04  0.00  0.00  0.96  0.00  0.00  0.00  0.03  0.00
  YS02001625YS02001629    1.00   0.04  0.01  0.00  0.94  0.00  0.01  0.00  0.00  0.00
  YS02163301YS02001633    1.00   0.00  0.04  0.00  0.96  0.00  0.00  0.00  0.00  0.00
  YS02163601YS02164001    1.00   0.00  0.02  0.00  0.98  0.00  0.00  0.00  0.00  0.00
  YS02164001YS02001641    1.00   0.00  0.02  0.00  0.98  0.00  0.00  0.00  0.06  0.00
  YS02001641YS02001644    1.00   0.00  0.00  0.00  1.00  0.00  0.00  0.00  0.00  0.00
  YS02001647YS02001649    1.00   0.00  0.04  0.00  0.96  0.00  0.00  0.00  0.01  0.00
  YS02006553YS02006556    1.00   0.01  0.00  0.00  0.99  0.00  0.00  0.00  0.03  0.00
  YS02006556YS02006558    1.00   0.00  0.00  0.00  1.00  0.00  0.00  0.00  0.00  0.00
  YSB6556YSB1171          1.00   0.01  0.02  0.00  0.97  0.00  0.00  0.00  0.00  0.00
  YS02001907YS02006553    1.00   0.00  0.01  0.00  0.99  0.00  0.00  0.00  0.00  0.00
  YS02006558YS02006561    1.00   0.05  0.00  0.00  0.22  0.73  0.00  0.00  0.43  0.00
  YS02001633YS02163601    1.00   0.00  0.00  0.00  1.00  0.00  0.00  0.00  0.15  0.00
  YS02001644YS02001647    1.00   0.00  0.04  0.00  0.96  0.00  0.00  0.00  0.00  0.00
  YS02001745YS02001748    1.00   0.00  0.00  0.00  0.93  0.00  0.00  0.07  0.01  0.00
  YS02001748YS02001751    1.00   0.00  0.00  0.00  0.98  0.02  0.00  0.00  0.14  0.00
  YS02001751YS02001754    1.00   0.00  0.00  0.00  0.95  0.00  0.00  0.05  0.01  0.00
  YS02001754YS02001757    1.00   0.00  0.00  0.00  1.00  0.00  0.00  0.00  0.17  0.00
  YS02001882YS02001884    1.00   0.04  0.00  0.00  0.96  0.00  0.00  0.00  0.00  0.00
  YS02001884YS02001887    1.00   0.02  0.01  0.00  0.97  0.00  0.00  0.00  0.00  0.00
  YS02001890YS02001895    1.00   0.00  0.04  0.00  0.96  0.00  0.00  0.00  0.00  0.00
  YS02001895YS02001898    1.00   0.04  0.00  0.00  0.95  0.00  0.01  0.00  0.00  0.00
  YS02001898YS02001901    1.00   0.04  0.00  0.00  0.96  0.00  0.00  0.00  0.01  0.00
  YS02001901YS02001904    1.00   0.04  0.00  0.00  0.96  0.00  0.00  0.00  0.00  0.00
  YS02001904YS02001907    1.00   0.00  0.04  0.00  0.96  0.00  0.00  0.00  0.00  0.00
  YS02001887YS02001890    1.00   0.00  0.00  0.00  0.99  0.00  0.01  0.00  0.00  0.00
  YS02001652YS02001649    1.00   0.00  0.00  0.00  1.00  0.00  0.00  0.00  0.15  0.00
  YS02001655YS02001652    1.00   0.00  0.00  0.00  0.95  0.00  0.00  0.05  0.01  0.00
  YS02001658YS02001655    1.00   0.00  0.04  0.00  0.94  0.02  0.00  0.00  0.02  0.00
  YS02001661YS02001658    1.00   0.04  0.00  0.00  0.93  0.03  0.00  0.00  0.01  0.00
  YS02001664YS02001661    1.00   0.03  0.00  0.00  0.94  0.03  0.00  0.00  0.10  0.00
  YSB1154YSB6556          1.00   0.03  0.00  0.00  0.97  0.00  0.00  0.00  0.01  0.00
  YSB1174YSB1171          1.00   0.02  0.01  0.00  0.97  0.00  0.00  0.00  0.00  0.00
  YSB1171HS02004479       1.00   0.01  0.00  0.00  0.98  0.00  0.00  0.00  0.10  0.00
  HS02004881HS02006253    1.00   0.02  0.00  0.00  0.83  0.01  0.00  0.15  0.70  0.00
  YS02001793JiankangQianchi    1.00   0.00  0.00  0.00  0.71  0.29  0.00  0.00  0.32  0.00
  YS02001757CaochengTiaoxuchi    1.00   0.00  0.06  0.00  0.92  0.03  0.00  0.00  0.00  0.00
  WSF200WS02003060        1.00   0.00  0.01  0.00  0.99  0.00  0.00  0.00  0.33  0.00
  1                       1.00   0.00  0.00  0.00  0.00  1.00  0.00  0.00  0.50  0.00
  
  
  *************************
  Conduit Surcharge Summary
  *************************
  
  ----------------------------------------------------------------------------
                                                           Hours        Hours 
                         --------- Hours Full --------   Above Full   Capacity
  Conduit                Both Ends  Upstream  Dnstream   Normal Flow   Limited
  ----------------------------------------------------------------------------
  WS02006229WS02006228        4.30      4.42      4.30      5.55         4.30
  WS02006256WS02006235        6.44      6.44      6.97      4.83         0.01
  WS02006253WS02006251        3.04      3.04      3.13      0.01         0.01
  WS02006252WS02006251        2.44      2.44      3.54      2.71         0.01
  WS02006251WS02006249        3.06      3.06      3.19      1.90         1.73
  WS02006249WS02006248        3.10      3.10      3.19      4.50         0.01
  WS02006248WS02006247        3.18      3.18      3.49      0.01         0.01
  WS02006247WS02006245        3.46      3.52      3.47      5.04         3.19
  WS02006245WS02006243        3.49      3.50      3.58      0.37         0.42
  WS02006243WS02006242        3.62      3.62      3.90      0.01         0.01
  WS02006242WS02006240        3.77      3.77      4.06      2.91         0.01
  WS02006240WS02006239        3.78      3.80      3.83      1.58         1.06
  WS02006239WS02006238        4.02      4.05      4.16      1.71         1.22
  WS02006238WS02006235        4.13      4.13      4.30      0.01         0.03
  WS02006235WS02006234        3.77      3.77      4.06      6.24         0.02
[...]
  YS02001779YS02001774        6.12      6.12      6.19      0.01         0.01
  YS02001649YS02001757        6.19      6.19      6.23      0.01         0.01
  YS02001767YS02001765        6.18      6.18      6.18      0.01         0.01
  YS02006561YS02001783        1.69      1.69      1.93      0.01         0.01
  YS02001783YS02001784        1.91      1.93      1.91      2.12         1.89
  YS02001784YS02001785        1.85      1.91      1.85      2.91         1.85
  YS02001788YS02001790        1.80      1.80      2.65      0.01         0.01
  YS02001790YS02001791        2.64      2.65      2.73      1.82         1.80
  YS02001791YS02001793        2.73      2.73      3.08      0.01         0.01
  YS02001910YS02001907        1.93      1.93      2.40      0.01         0.01
  YS02001786YS02001788        1.80      1.85      1.80      2.57         1.80
  YS02001915YS02001910        1.79      1.79      1.93      0.01         0.01
  YS02001918YS02001915        1.65      1.65      1.79      0.01         0.01
  YS02001923YS02001920        1.49      1.49      1.68      0.01         0.01
  YS02001926YS02001923        0.01      0.01      0.01      0.01         0.01
  YS02001929YS02001926        0.01      0.01      0.01      0.01         0.01
  YS02001920YS02001918        1.65      1.65      1.68      0.01         0.01
  YS02001629YS02163301        6.16      6.16      6.17      0.01         0.01
  YS02001619YS02001622        6.09      6.09      6.10      0.01         0.02
  YS02001622YS02001625        6.10      6.10      6.15      0.01         0.01
  YS02001625YS02001629        6.08      6.08      6.15      0.01         0.01
  YS02163301YS02001633        6.17      6.17      6.18      0.01         0.01
  YS02163601YS02164001        6.17      6.17      6.20      0.01         0.01
  YS02164001YS02001641        6.17      6.17      6.18      0.01         0.03
  YS02001641YS02001644        6.18      6.18      6.18      2.37         2.47
  YS02001647YS02001649        6.15      6.15      6.19      0.01         0.01
  YS02006553YS02006556        2.10      2.10      2.47      0.01         0.01
  YS02006556YS02006558        2.22      2.22      2.51      0.01         0.01
  YSB6556YSB1171              0.01      0.01      0.30      0.01         0.01
  YS02001907YS02006553        2.94      2.94      3.11      0.01         0.01
  YS02006558YS02006561        1.78      2.07      1.78      2.78         1.78
  YS02001633YS02163601        6.17      6.17      6.20      0.01         0.01
  YS02001644YS02001647        6.15      6.15      6.18      0.01         0.01
  YS02001745YS02001748        0.01      0.01      6.04      0.01         0.01
  YS02001748YS02001751        6.05      6.05      6.09      0.01         0.01
  YS02001751YS02001754        6.09      6.09      6.14      0.01         0.01
  YS02001754YS02001757        6.15      6.15      6.23      0.01         0.01
  YS02001882YS02001884        1.80      1.80      1.82      0.01         0.01
  YS02001884YS02001887        1.85      1.85      1.87      0.01         0.01
  YS02001890YS02001895        1.78      1.78      1.94      0.01         0.01
  YS02001895YS02001898        1.77      1.77      1.78      0.01         0.01
  YS02001898YS02001901        1.79      1.79      1.85      0.01         0.01
  YS02001901YS02001904        1.83      1.83      1.85      0.01         0.01
  YS02001904YS02001907        1.83      1.83      2.49      0.01         0.01
  YS02001887YS02001890        1.89      1.89      1.91      0.52         0.01
  YS02001652YS02001649        6.16      6.16      6.19      0.01         0.01
  YS02001655YS02001652        6.10      6.10      6.15      0.01         0.01
  YS02001658YS02001655        6.05      6.05      6.10      0.01         0.01
  YS02001661YS02001658        0.14      0.14      6.05      0.01         0.01
  YS02001664YS02001661        0.01      0.01      1.78      0.01         0.01
  HS02004881HS02006253        0.01      0.01      2.34      0.01         0.01
  YS02001793JiankangQianchi        2.99      2.99      4.29      0.01         0.01
  YS02001757CaochengTiaoxuchi        5.75      5.75      6.23      0.01         0.01
  
  
  ***************
  Pumping Summary
  ***************
  
  ---------------------------------------------------------------------------------------------------------
                                                  Min       Avg       Max     Total     Power    % Time Off
                        Percent   Number of      Flow      Flow      Flow    Volume     Usage    Pump Curve
  Pump                 Utilized   Start-Ups       LPS       LPS       LPS  10^6 ltr     Kw-hr    Low   High
  ---------------------------------------------------------------------------------------------------------
  CC-Pump-1               72.34           1      0.00    175.96    200.00     3.540      3.93    0.0    0.0
  CC-Pump-2               48.94           6      0.00    103.44    200.00     1.800      2.54    0.0    0.0
  JK-Pump-1               65.96           4      0.00    242.39    300.00     4.400     58.88    0.0    0.0
  JK-Pump-2               57.45           3      0.00    471.74    683.00     7.612     93.34    0.0   98.0
  XR-Pump-1               97.88           2      0.00     94.22     95.00     2.565     20.40    0.0    0.0
  XR-Pump-2               97.88           2      0.00     94.22     95.00     2.565     20.40    0.0    0.0
  XR-Pump-3               97.88           2      0.00     93.76     95.00     2.508     19.09    0.0    0.0
  XR-Pump-4               97.88           2      0.00     93.76     95.00     2.508     19.09    0.0    0.0
  
  
  ***************************
  Link Pollutant Load Summary
  ***************************
  
  ------------------------------------------------------------------------------------------
                                 COD            SS            TN            TP         NH4-N
  Link                            kg            kg            kg            kg            kg
  ------------------------------------------------------------------------------------------
  WS02003066WSF200          1186.218      2280.001        28.164         2.336        14.476
  WS02006287WS02006284       438.104       854.580        12.586         1.181         6.763
  WS02006284WS02006280       438.606       855.388        12.634         1.187         6.793
  WS02006280WS02006229       438.615       855.448        12.632         1.187         6.792
  WS02006229WS02006228      1182.961      2273.509        27.565         2.251        14.089
  WS02006256WS02006235       236.683       446.660         4.984         0.375         2.484
  WS02006253WS02006251        85.938       172.405         1.854         0.138         0.915
  WS02006252WS02006251       534.869      1019.135        10.298         0.704         4.961
  WS02006251WS02006249       611.147      1173.252        11.981         0.832         5.797
  WS02006249WS02006248       522.152       999.232        10.272         0.714         4.975
  WS02006248WS02006247       519.270       993.150        10.217         0.710         4.949
  WS02006247WS02006245       519.487       993.698        10.220         0.710         4.950
  WS02006245WS02006243       519.986       994.897        10.226         0.711         4.952
  WS02006243WS02006242       520.305       995.607        10.234         0.711         4.956
  WS02006242WS02006240       520.000       994.917        10.230         0.711         4.955
  WS02006240WS02006239       519.859       994.354        10.236         0.712         4.959
  WS02006239WS02006238       519.482       993.131        10.248         0.714         4.969
  WS02006238WS02006235       518.719       991.240        10.246         0.715         4.970
  WS02006235WS02006234       748.338      1425.384        15.036         1.073         7.351
  WS02006234WS02006232       747.632      1424.118        15.020         1.072         7.343
  WS02006232WS02006231       746.626      1422.256        14.998         1.070         7.332
  WS02006231WS02006230       745.901      1420.930        14.985         1.069         7.326
  WS02006230WS02006229       746.533      1422.155        15.006         1.072         7.337
  WS02006228WS02006109      1181.598      2271.043        27.527         2.248        14.068
  WS02006116WS02004401      1198.902      2303.341        28.423         2.354        14.601
  WS02006115WS02006116      1200.449      2306.162        28.464         2.357        14.623
  WS02006113WS02006111      1186.630      2278.498        28.244         2.341        14.525
  WS02006112WS02006115      1201.854      2308.704        28.508         2.361        14.647
  WS02006111WS02006112      1185.880      2277.059        28.222         2.339        14.513
  WS02006110WS02006113      1187.283      2279.614        28.264         2.343        14.536
  WS02006109WS02006110      1188.533      2281.791        28.307         2.347        14.560
  WS02004411WS02004412      1189.601      2286.147        28.266         2.346        14.531
  WS02004401WS02004402      1197.584      2300.960        28.383         2.350        14.580
  WS02004413WS02003067      1187.012      2281.491        28.180         2.337        14.483
  WS02004412WS02004413      1188.253      2283.699        28.228         2.342        14.511
  WS02004410WS02004411      1190.743      2288.234        28.296         2.348        14.547
  WS02004409WS02004410      1191.830      2290.208        28.326         2.351        14.563
  WS02004407WS02004409      1192.837      2292.050        28.350         2.353        14.575
  WS02004406WS02004407      1193.213      2292.745        28.354         2.353        14.576
  WS02004405WS02004406      1194.559      2295.153        28.400         2.357        14.602
  WS02004404WS02004405      1195.766      2297.427        28.408         2.356        14.603
  WS02004403WS02004404      1195.309      2296.837        28.318         2.344        14.545
  WS02004402WS02004403      1196.333      2298.691        28.349         2.347        14.562
  WS02004139WS02001211      1359.688      2304.462       101.975        12.300        62.435
  WS02004138WS02004139      1365.990      2315.091       102.445        12.357        62.723
  WS02003067WS02003066      1186.375      2280.291        28.169         2.337        14.478
  WS02001213WS02003059      1392.764      2356.195       105.446        12.739        64.618
  WS02001212WS02001213      1401.965      2371.568       106.170        12.827        65.064
  WS02001211WS02001212      1404.076      2375.028       106.350        12.849        65.175
  WS02003072WS02003073      2678.529      4793.874       143.609        16.332        85.362
  WS02003069WS02003072      2683.621      4802.256       144.025        16.383        85.619
  WS02003060WS02003069      2686.440      4807.227       144.167        16.399        85.702
  WS02003059WS02003060      1389.724      2350.973       105.244        12.715        64.496
  HS02004901HS02004770        19.400        38.444         0.369         0.028         0.174
  HS02004876HS02004881        64.843       131.158         1.382         0.100         0.674
  HS02004870HS02004876        49.302        99.621         1.095         0.080         0.537
  HS02004842HS02004848         9.278        18.136         0.191         0.013         0.089
  HS02004837HS02004842        13.925        25.525         0.662         0.072         0.384
  HS02004830HS02004837        81.309       145.734         4.858         0.568         2.931
  HS02004824HS02004830        82.102       147.039         4.931         0.577         2.976
  HS02004817HS02004824       118.566       221.810         5.667         0.624         3.333
  HS02004770HS02004777        73.687       147.831         1.507         0.104         0.700
  HS02004799HS02004480       235.091       460.657         5.679         0.484         2.882
  HS02004792HS02004799       214.148       417.346         5.330         0.464         2.722
  HS02004788HS02004792       116.318       227.349         3.333         0.303         1.755
  HS02004785HS02004788        75.103       150.096         1.653         0.123         0.793
  HS02004777HS02004785        74.433       149.021         1.592         0.115         0.755
  HS02004480HS02004478       294.433       579.950         6.704         0.559         3.370
  HS02004479HS02004480        62.981       125.167         1.335         0.113         0.681
  HS02004862HS02004870        37.532        74.851         0.862         0.066         0.425
  HS02004848HS02004852        15.822        31.382         0.320         0.022         0.149
  HS02004856HS02004862        25.851        52.199         0.514         0.035         0.242
  HS02004852HS02004856        15.836        31.405         0.320         0.022         0.149
  HS02004802HS02004478       144.599       276.118         5.948         0.629         3.432
  HS02004478WS02006287       438.251       854.789        12.603         1.183         6.773
  HS02004817HS02004807       117.207       219.666         5.527         0.607         3.246
  HS02004807HS02004802       144.764       276.369         5.980         0.634         3.453
  YS02001759YS02001757       463.862       876.983         9.060         0.634         4.416
  YS02001762YS02001759       213.507       401.838         4.388         0.310         2.160
  YS02001765YS02001762       215.170       406.177         4.438         0.314         2.188
  YS02001770YS02001767       218.436       415.473         4.351         0.296         2.119
  YS02001774YS02001770       426.094       837.329         8.218         0.550         3.976
  YS02001779YS02001774       425.142       835.495         8.282         0.561         4.023
  YS02001649YS02001757       413.202       766.419         8.201         0.569         3.944
  YS02001767YS02001765       217.234       411.234         4.493         0.319         2.217
  YS02006561YS02001783      1263.184      2384.846        26.073         1.927        12.907
  YS02001783YS02001784      1263.052      2384.635        26.068         1.926        12.904
  YS02001784YS02001785      1270.393      2396.399        26.781         2.015        13.350
  YS02001788YS02001790      1270.990      2397.361        26.853         2.025        13.396
  YS02001790YS02001791      1271.975      2398.938        26.952         2.037        13.458
  YS02001791YS02001793      1271.867      2398.746        26.947         2.037        13.455
  YS02001910YS02001907       566.022      1068.706        12.814         0.949         6.475
  YS02001786YS02001788      1270.582      2396.702        26.809         2.019        13.368
  YS02001915YS02001910       565.801      1068.253        12.769         0.942         6.445
  YS02001918YS02001915       279.396       506.660         6.950         0.600         3.658
  YS02001923YS02001920       254.128       463.495         4.925         0.354         2.407
  YS02001926YS02001923       251.100       458.041         4.807         0.342         2.340
  YS02001929YS02001926       248.355       453.249         4.682         0.329         2.267
  YS02001920YS02001918       275.266       498.005         6.858         0.594         3.612
  YS02001629YS02163301        89.721       159.403         1.894         0.125         0.888
  YS02001619YS02001622       259.371       485.218         5.243         0.348         2.461
  YS02001622YS02001625       258.406       483.703         5.219         0.346         2.450
  YS02001625YS02001629        86.770       153.549         1.849         0.121         0.865
  YS02163301YS02001633        94.561       168.897         1.971         0.131         0.927
  YS02163601YS02164001       528.959       976.375        10.163         0.735         4.885
  YS02164001YS02001641       528.853       976.183        10.151         0.733         4.878
  YS02001641YS02001644       529.869       977.884        10.163         0.734         4.883
  YS02001647YS02001649       564.887      1056.283        11.171         0.782         5.333
  YS02006553YS02006556       782.191      1457.827        16.642         1.261         8.338
  YS02006556YS02006558       782.340      1458.099        16.607         1.256         8.315
  YSB6556YSB1171              36.521        72.732         0.718         0.059         0.359
  YS02001907YS02006553       782.185      1457.835        16.669         1.265         8.357
  YS02006558YS02006561      1263.129      2384.732        26.072         1.926        12.907
  YS02001633YS02163601       529.549       977.306        10.140         0.730         4.867
  YS02001644YS02001647       572.244      1070.312        11.290         0.791         5.388
  YS02001745YS02001748       354.084       679.984         6.989         0.437         3.358
  YS02001748YS02001751       353.386       678.797         6.996         0.440         3.366
  YS02001751YS02001754       352.505       677.354         6.983         0.440         3.361
  YS02001754YS02001757       353.339       678.604         7.150         0.462         3.469
  YS02001882YS02001884         5.600        10.018         0.106         0.008         0.052
  YS02001884YS02001887         7.663        13.842         0.145         0.011         0.071
  YS02001890YS02001895       614.596      1175.096        11.357         0.858         5.541
  YS02001895YS02001898       614.485      1174.985        11.352         0.858         5.538
  YS02001898YS02001901       614.606      1175.091        11.357         0.858         5.541
  YS02001901YS02001904       613.906      1174.070        11.349         0.858         5.539
  YS02001904YS02001907       614.794      1175.428        11.426         0.867         5.586
  YS02001887YS02001890       669.063      1284.023        12.352         0.935         6.030
  YS02001652YS02001649       307.003       583.946         6.083         0.440         2.860
  YS02001655YS02001652       307.485       584.756         6.096         0.441         2.866
  YS02001658YS02001655       306.948       583.930         6.009         0.430         2.810
  YS02001661YS02001658       307.501       584.868         6.022         0.431         2.815
  YS02001664YS02001661       324.628       612.520         6.423         0.458         2.999
  YSB1154YSB6556              36.101        72.068         0.671         0.053         0.330
  YSB1174YSB1171              24.945        50.011         0.488         0.039         0.242
  YSB1171HS02004479           62.901       125.018         1.340         0.114         0.684
  HS02004881HS02006253        73.377       148.972         1.532         0.109         0.745
  YS02001793JiankangQianchi      1272.606      2399.970        26.975         2.039        13.471
  YS02001757CaochengTiaoxuchi       798.157      1500.590        15.706         1.076         7.587
  WSF200WS02003060          1185.813      2279.226        28.161         2.336        14.475
  1                         2684.258      4801.752       144.495        16.448        85.929
  CC-Pump-1                  354.276       674.986         6.823         0.467         3.287
  CC-Pump-2                  180.353       343.633         3.471         0.237         1.672
  JK-Pump-1                  353.984       674.304         7.277         0.542         3.607
  JK-Pump-2                  732.933      1405.491        14.768         1.086         7.279
  XR-Pump-1                  348.822       590.553        26.300         3.175        16.110
  XR-Pump-2                  348.822       590.553        26.300         3.175        16.110
  XR-Pump-3                  336.076       570.160        25.076         3.022        15.345
  XR-Pump-4                  336.076       570.160        25.076         3.022        15.345
  

  Analysis begun on:  Wed Jul 14 14:35:53 2021
  Analysis ended on:  Wed Jul 14 14:35:56 2021
  Total elapsed time: 00:00:03