
  EPA STORM WATER MANAGEMENT MODEL - VERSION 5.1 (Build 5.3.0.dev0)
  --------------------------------------------------------------

  WARNING 04: minimum elevation drop used for Conduit WS02004404WS02004405
  WARNING 03: negative offset ignored for Link YS02001904YS02001907
  
  *********************************************************
  NOTE: The summary statistics displayed in this report are
  based on results found at every computational time step,  
  not just on results from each reporting time step.
  *********************************************************
  
  ****************
  Analysis Options
  ****************
  Flow Units ............... LPS
  Process Models:
    Rainfall/Runoff ........ YES
    RDII ................... NO
    Snowmelt ............... NO
    Groundwater ............ NO
    Flow Routing ........... YES
    Ponding Allowed ........ NO
    Water Quality .......... YES
  Infiltration Method ...... HORTON
  Flow Routing Method ...... DYNWAVE
  Surcharge Method ......... EXTRAN
  Starting Date ............ 08/28/2015 08:00:00
  Ending Date .............. 08/28/2015 15:50:00
  Antecedent Dry Days ...... 8.0
  Report Time Step ......... 00:01:00
  Wet Time Step ............ 00:01:00
  Dry Time Step ............ 00:01:00
  Routing Time Step ........ 5.00 sec
  Variable Time Step ....... YES
  Maximum Trials ........... 8
  Number of Threads ........ 4
  Head Tolerance ........... 0.001500 m
  
  
  **************************        Volume         Depth
  Runoff Quantity Continuity     hectare-m            mm
  **************************     ---------       -------
  Total Precipitation ......         7.641        16.729
  Evaporation Loss .........         0.000         0.000
  Infiltration Loss ........         1.184         2.592
  Surface Runoff ...........         5.481        12.000
  Final Storage ............         0.977         2.139
  Continuity Error (%) .....        -0.016
  
  
  **************************           COD            SS            TN            TP         NH4-N
  Runoff Quality Continuity             kg            kg            kg            kg            kg
  **************************    ----------    ----------    ----------    ----------    ----------
  Initial Buildup ..........     41378.656     70582.865      1804.177       168.684      1032.807
  Surface Buildup ..........        30.344        63.217         2.449         0.220         1.402
  Wet Deposition ...........         0.000         0.000         0.000         0.000         0.000
  Sweeping Removal .........         0.000         0.000         0.000         0.000         0.000
  Infiltration Loss ........       127.934       247.015         2.452         0.174         1.174
  BMP Removal ..............         0.000         0.000         0.000         0.000         0.000
  Surface Runoff ...........      5553.100     10632.121       107.101         7.411        51.076
  Remaining Buildup ........     35725.917     59762.998      1697.031       161.316       981.940
  Continuity Error (%) .....         0.005         0.006         0.002         0.002         0.002
  
  
  **************************        Volume        Volume
  Flow Routing Continuity        hectare-m      10^6 ltr
  **************************     ---------     ---------
  Dry Weather Inflow .......         0.616         6.165
  Wet Weather Inflow .......         5.479        54.791
  Groundwater Inflow .......         0.000         0.000
  RDII Inflow ..............         0.000         0.000
  External Inflow ..........         0.102         1.024
  External Outflow .........         2.252        22.521
  Flooding Loss ............         3.495        34.951
  Evaporation Loss .........         0.000         0.000
  Exfiltration Loss ........         0.000         0.000
  Initial Stored Volume ....         0.076         0.761
  Final Stored Volume ......         0.655         6.550
  Continuity Error (%) .....        -2.043
  
  
  **************************           COD            SS            TN            TP         NH4-N
  Quality Routing Continuity            kg            kg            kg            kg            kg
  **************************    ----------    ----------    ----------    ----------    ----------
  Dry Weather Inflow .......      1541.201      2465.922       147.955        18.494        92.472
  Wet Weather Inflow .......      5551.992     10630.154       107.078         7.409        51.065
  Groundwater Inflow .......         0.000         0.000         0.000         0.000         0.000
  RDII Inflow ..............         0.000         0.000         0.000         0.000         0.000
  External Inflow ..........       183.418       293.469        17.608         2.201        11.005
  External Outflow .........      2703.954      4837.488       145.569        16.569        86.567
  Flooding Loss ............      3862.419      7325.543        98.134         8.555        51.475
  Exfiltration Loss ........         0.000         0.000         0.000         0.000         0.000
  Mass Reacted .............         0.000         0.000         0.000         0.000         0.000
  Initial Stored Mass ......         0.000         0.000         0.000         0.000         0.000
  Final Stored Mass ........       569.506       989.576        25.041         2.654        14.463
  Continuity Error (%) .....         1.934         1.770         1.429         1.162         1.319
  
  
  *************************
  Highest Continuity Errors
  *************************
  Node HS02004842 (10.96%)
  Node JK-storage (-10.46%)
  Node YS02001884 (8.73%)
  Node HS02004817 (2.13%)
  Node YSB1171 (1.97%)
  
  
  ***************************
  Time-Step Critical Elements
  ***************************
  Link WS02006252WS02006251 (67.14%)
  Link WS02006280WS02006229 (9.13%)
  Link WS02006238WS02006235 (7.44%)
  Link WS02004404WS02004405 (3.98%)
  Link YS02001793JiankangQianchi (3.42%)
  
  
  ********************************
  Highest Flow Instability Indexes
  ********************************
  Link WS02006113WS02006111 (36)
  Link YS02001629YS02163301 (30)
  Link YS02163301YS02001633 (30)
  Link YS02163601YS02164001 (30)
  Link YS02001619YS02001622 (29)
  
  
  *************************
  Routing Time Step Summary
  *************************
  Minimum Time Step           :     0.06 sec
  Average Time Step           :     1.09 sec
  Maximum Time Step           :     5.00 sec
  Percent in Steady State     :    -0.00
  Average Iterations per Step :     3.92
  Percent Not Converging      :    15.99
  
  
  ***************************
  Subcatchment Runoff Summary
  ***************************
  
  ------------------------------------------------------------------------------------------------------------------------------
                            Total      Total      Total      Total     Imperv       Perv      Total       Total     Peak  Runoff
                           Precip      Runon       Evap      Infil     Runoff     Runoff     Runoff      Runoff   Runoff   Coeff
  Subcatchment                 mm         mm         mm         mm         mm         mm         mm    10^6 ltr      LPS
  ------------------------------------------------------------------------------------------------------------------------------
  sub0                      16.73       0.00       0.00       0.71      15.51       0.47      15.98        0.01     3.87   0.955
  sub1                      16.73       0.00       0.00       1.18      14.80       0.66      15.46        0.10    26.74   0.924
  sub2                      16.73       0.00       0.00       4.79      10.46       1.40      11.85        0.11    25.81   0.708
  sub3                      16.73       0.00       0.00       5.01      10.42       1.18      11.60        0.26    56.97   0.693
  sub4                      16.73       0.00       0.00       1.28      14.64       0.56      15.20        0.32    66.74   0.909
  sub5                      16.73       0.00       0.00       0.73      15.46       0.44      15.91        0.18    46.91   0.951
  sub7                      16.73       0.00       0.00       0.93      15.16       0.58      15.74        0.05    14.85   0.941
  sub8                      16.73       0.00       0.00       0.94      15.15       0.57      15.72        0.10    27.42   0.940
  sub9                      16.73       0.00       0.00       0.94      15.15       0.57      15.72        0.08    20.52   0.940
  sub10                     16.73       0.00       0.00       0.83      15.30       0.50      15.81        0.17    46.04   0.945
  sub11                     16.73       0.00       0.00       0.83      15.32       0.51      15.83        0.18    50.62   0.947
  sub12                     16.73       0.00       0.00       1.34      14.51       0.83      15.34        0.13    39.22   0.917
  sub14                     16.73       0.00       0.00       0.94      15.15       0.57      15.72        0.15    40.40   0.939
  sub15                     16.73       0.00       0.00       3.54      11.65       1.48      13.13        0.23    57.86   0.785
  sub16                     16.73       0.00       0.00       3.72      11.17       1.80      12.97        0.14    37.34   0.776
  sub17                     16.73       0.00       0.00       3.62      11.33       1.73      13.07        0.11    30.57   0.781
  sub22                     16.73       0.00       0.00       5.27       9.49       1.92      11.42        0.72   183.11   0.683
  sub23                     16.73       0.00       0.00       4.37      10.50       1.82      12.32        0.59   153.57   0.736
  sub60                     16.73       0.00       0.00       1.74      12.78       0.27      13.05        3.96   446.24   0.780
  sub61                     16.73       0.00       0.00       2.46      12.72       0.38      13.11        4.04   542.53   0.784
  sub62                     16.73       0.00       0.00       1.06      13.91       0.27      14.19        4.36   558.01   0.848
  sub63                     16.73       0.00       0.00       4.39      11.06       0.46      11.52        3.49   496.40   0.689
  sub64                     16.73       0.00       0.00       2.23      12.28       0.28      12.56        3.82   424.95   0.751
  sub65                     16.73       0.00       0.00       1.91      12.51       0.27      12.77        3.93   431.32   0.764
  sub66                     16.73       0.00       0.00       4.54      10.46       0.31      10.78        3.31   388.44   0.644
  sub67                     16.73       0.00       0.00       1.01      14.45       0.32      14.78        4.56   675.76   0.883
  sub68                     16.73       0.00       0.00       1.95      13.33       0.39      13.71        4.22   589.75   0.820
  sub69                     16.73       0.00       0.00       2.00      13.62       0.51      14.12        3.30   542.07   0.844
  sub70                     16.73      14.42       0.00       8.47      19.01       2.12      21.13        4.84   534.50   0.678
  sub71                     16.73       0.00       0.00       1.08      13.65       0.25      13.90        3.28   394.68   0.831
  sub72                     16.73       0.00       0.00       1.02      11.50       0.15      11.65        2.37   206.66   0.697
  1                         16.73      20.58       0.00       1.37      22.38       7.20      29.58        6.95   612.18   0.793
  2                         16.73       0.00       0.00       3.02       4.04       3.18       7.22        2.89   331.58   0.431
  
  
  ****************************
  Subcatchment Washoff Summary
  ****************************
  
  ------------------------------------------------------------------------------------------
                                 COD            SS            TN            TP         NH4-N
  Subcatchment                    kg            kg            kg            kg            kg
  ------------------------------------------------------------------------------------------
  sub0                         3.641         7.161         0.064         0.005         0.031
  sub1                        15.670        31.767         0.296         0.021         0.143
  sub2                        10.304        20.454         0.214         0.015         0.099
  sub3                        25.293        49.815         0.517         0.036         0.240
  sub4                        36.168        74.260         0.714         0.044         0.344
  sub5                        35.763        71.366         0.649         0.050         0.316
  sub7                         7.894        16.212         0.150         0.010         0.073
  sub8                        11.755        24.726         0.234         0.014         0.113
  sub9                        10.113        20.966         0.196         0.013         0.095
  sub10                       29.347        59.341         0.545         0.040         0.265
  sub11                       28.395        58.052         0.536         0.037         0.260
  sub12                       24.463        49.072         0.450         0.034         0.218
  sub14                       21.697        44.543         0.414         0.028         0.200
  sub15                       29.696        58.821         0.572         0.042         0.270
  sub16                       19.246        38.050         0.367         0.028         0.174
  sub17                       17.687        34.653         0.330         0.026         0.156
  sub22                       95.915       186.896         1.820         0.139         0.857
  sub23                       54.382       109.539         1.141         0.076         0.527
  sub60                      353.947       679.509         6.988         0.437         3.357
  sub61                      439.695       840.113         8.188         0.570         3.952
  sub62                      449.790       873.119         8.744         0.564         4.209
  sub63                      328.186       618.356         6.505         0.463         3.037
  sub64                      450.924       835.563         8.299         0.611         3.976
  sub65                      460.537       856.688         8.527         0.617         4.090
  sub66                      259.427       485.147         5.248         0.348         2.463
  sub67                      667.181      1281.068        12.075         0.900         5.853
  sub68                      479.473       924.467         9.153         0.628         4.389
  sub69                      429.286       835.450         8.068         0.576         3.873
  sub70                      758.301      1478.311        15.194         1.074         7.173
  sub71                      296.268       580.620         6.027         0.356         2.890
  sub72                      247.759       452.374         4.612         0.320         2.223
  1                          576.917      1130.968        11.723         0.829         5.484
  2                           65.566       118.435         1.802         0.109         0.773
  ------------------------------------------------------------------------------------------
  System                    6740.687     12945.882       130.363         9.060        62.122
  
  
  ******************
  Node Depth Summary
  ******************
  
  ---------------------------------------------------------------------------------
                                 Average  Maximum  Maximum  Time of Max    Reported
                                   Depth    Depth      HGL   Occurrence   Max Depth
  Node                 Type       Meters   Meters   Meters  days hr:min      Meters
  ---------------------------------------------------------------------------------
  WS02001211           JUNCTION     0.79     0.85     5.69     0  02:01        0.85
  WS02001212           JUNCTION     0.50     0.58     5.64     0  02:02        0.58
  WS02001213           JUNCTION     0.74     0.86     5.62     0  02:01        0.86
  WS02003069           JUNCTION     0.55     0.72     5.31     0  02:01        0.72
  WS02003072           JUNCTION     0.61     0.77     5.14     0  02:01        0.77
  WS02003073           JUNCTION     0.38     0.48     4.55     0  02:02        0.48
  WS02003060           JUNCTION     0.49     0.64     5.57     0  02:00        0.64
  WS02003066           JUNCTION     0.27     0.39     5.94     0  01:55        0.39
  WS02003059           JUNCTION     0.79     0.91     5.60     0  02:01        0.91
  WS02003067           JUNCTION     0.65     0.83     6.15     0  01:54        0.83
  WS02004401           JUNCTION     0.80     1.31     7.31     0  01:52        1.29
  WS02004402           JUNCTION     0.82     1.30     7.26     0  01:52        1.27
  WS02004403           JUNCTION     0.84     1.27     7.20     0  01:52        1.24
  WS02004404           JUNCTION     0.91     1.31     7.16     0  01:52        1.28
  WS02004406           JUNCTION     0.90     1.21     7.04     0  01:52        1.18
  WS02004409           JUNCTION     0.61     0.98     6.75     0  01:55        0.98
  WS02004410           JUNCTION     0.62     0.97     6.69     0  01:55        0.96
  WS02004411           JUNCTION     0.63     0.94     6.62     0  01:55        0.94
  WS02004412           JUNCTION     0.64     0.92     6.56     0  01:55        0.92
  WS02004413           JUNCTION     0.80     1.03     6.50     0  01:54        1.03
  WS02004405           JUNCTION     0.90     1.28     7.13     0  01:52        1.25
  WS02006109           JUNCTION     0.90     1.76     8.38     0  01:53        1.75
  WS02006110           JUNCTION     0.86     1.55     8.13     0  01:52        1.54
  WS02006111           JUNCTION     0.29     1.01     7.72     0  01:52        0.97
  WS02006112           JUNCTION     0.99     1.66     7.54     0  01:52        1.64
  WS02006113           JUNCTION     0.42     1.06     7.96     0  01:52        1.02
  WS02006115           JUNCTION     0.70     1.32     7.46     0  01:52        1.29
  WS02006116           JUNCTION     0.78     1.35     7.39     0  01:52        1.33
  WS02006230           JUNCTION     0.95     1.99     8.73     0  01:53        1.97
  WS02006231           JUNCTION     0.68     1.62     8.75     0  01:53        1.60
  WS02006232           JUNCTION     0.84     1.71     8.75     0  01:53        1.68
  WS02006234           JUNCTION     0.79     1.60     8.75     0  01:53        1.59
  WS02006235           JUNCTION     0.84     1.60     8.77     0  01:53        1.58
  WS02006238           JUNCTION     0.86     1.62     8.76     0  01:53        1.60
  WS02006240           JUNCTION     0.78     1.44     8.74     0  01:53        1.43
  WS02006242           JUNCTION     0.84     1.46     8.73     0  01:53        1.45
  WS02006243           JUNCTION     0.72     1.30     8.72     0  01:53        1.28
  WS02006245           JUNCTION     0.70     1.22     8.71     0  01:53        1.22
  WS02006247           JUNCTION     0.71     1.20     8.70     0  01:53        1.20
  WS02006248           JUNCTION     0.65     1.10     8.69     0  01:50        1.10
  WS02006249           JUNCTION     0.67     1.09     8.69     0  01:50        1.09
  WS02006239           JUNCTION     0.83     1.54     8.75     0  01:53        1.52
  WS02006251           JUNCTION     0.64     1.28     8.95     0  06:59        1.15
  WS02006252           JUNCTION     0.39     0.83     9.07     0  06:59        0.70
  WS02006253           JUNCTION     0.67     1.34     8.99     0  06:59        1.18
  WS02006256           JUNCTION     1.80     2.35     9.28     0  00:00        2.35
  WS02004138           JUNCTION     0.19     0.20     7.45     0  00:00        0.19
  WS02004139           JUNCTION     0.73     0.79     5.70     0  02:02        0.79
  WS02004407           JUNCTION     0.27     0.40     6.72     0  01:53        0.40
  WS02006228           JUNCTION     0.93     1.94     8.59     0  01:53        1.93
  WS02006229           JUNCTION     0.92     2.02     8.72     0  01:53        2.00
  WS02006280           JUNCTION     0.08     0.33     8.60     0  01:52        0.31
  WS02006284           JUNCTION     0.38     0.66     9.06     0  01:54        0.66
  WS02006287           JUNCTION     0.11     0.40     9.36     0  01:54        0.40
  WSF200               JUNCTION     0.27     0.44     5.68     0  01:55        0.44
  HS02004901           JUNCTION     0.13     0.38    10.21     0  01:53        0.38
  HS02004881           JUNCTION     0.01     0.05     9.08     0  01:54        0.05
  HS02004876           JUNCTION     0.05     0.17     9.20     0  01:54        0.17
  HS02004870           JUNCTION     0.02     0.10     9.38     0  01:54        0.10
  HS02004862           JUNCTION     0.02     0.11     9.50     0  01:55        0.11
  HS02004856           JUNCTION     0.08     0.15     9.58     0  01:54        0.15
  HS02004852           JUNCTION     0.01     0.08     9.59     0  01:54        0.08
  HS02004848           JUNCTION     0.01     0.07     9.67     0  01:54        0.07
  HS02004842           JUNCTION     0.34     0.40     9.67     0  01:54        0.40
  HS02004837           JUNCTION     0.03     0.09     9.67     0  01:54        0.09
  HS02004830           JUNCTION     0.04     0.11     9.58     0  01:55        0.11
  HS02004824           JUNCTION     0.03     0.15     9.55     0  01:54        0.15
  HS02004817           JUNCTION     0.45     0.71     9.56     0  01:54        0.71
  HS02004807           JUNCTION     0.14     0.38     9.55     0  01:55        0.38
  HS02004802           JUNCTION     0.17     0.41     9.54     0  01:55        0.41
  HS02004799           JUNCTION     0.13     0.48     9.69     0  01:53        0.48
  HS02004792           JUNCTION     0.04     0.22     9.75     0  01:53        0.22
  HS02004788           JUNCTION     0.03     0.16    10.06     0  01:54        0.16
  HS02004785           JUNCTION     0.05     0.25    10.15     0  01:53        0.25
  HS02004777           JUNCTION     0.16     0.40    10.20     0  01:53        0.40
  HS02004770           JUNCTION     0.13     0.37    10.21     0  01:53        0.37
  HS02004480           JUNCTION     0.09     0.39     9.64     0  01:53        0.39
  HS02004479           JUNCTION     0.13     0.43     9.64     0  01:53        0.43
  HS02004478           JUNCTION     0.07     0.29     9.52     0  01:54        0.29
  YS02001745           JUNCTION     0.79     0.96     8.47     0  03:01        0.96
  YS02001748           JUNCTION     1.20     1.40     8.47     0  03:04        1.39
  YS02001751           JUNCTION     1.38     1.59     8.47     0  03:03        1.59
  YS02001754           JUNCTION     1.64     1.85     8.46     0  03:04        1.84
  YS02001762           JUNCTION     1.84     2.05     8.45     0  03:04        2.04
  YS02001765           JUNCTION     1.79     1.99     8.44     0  03:05        1.98
  YS02001767           JUNCTION     1.75     1.95     8.44     0  03:04        1.94
  YS02001770           JUNCTION     1.74     1.93     8.43     0  03:03        1.93
  YS02001774           JUNCTION     1.81     1.99     8.41     0  03:05        1.98
  YS02001779           JUNCTION     1.55     1.68     8.37     0  01:51        1.68
  YS02001882           JUNCTION     0.67     1.83     8.55     0  01:48        1.63
  YS02001884           JUNCTION     0.77     1.93     8.55     0  01:48        1.73
  YS02001759           JUNCTION     1.87     2.08     8.45     0  03:03        2.08
  YS02001887           JUNCTION     0.84     1.94     8.48     0  01:48        1.81
  YS02001890           JUNCTION     0.87     1.81     8.32     0  01:48        1.81
  YS02001898           JUNCTION     0.64     1.57     8.30     0  01:51        1.56
  YS02001901           JUNCTION     0.76     1.68     8.29     0  02:00        1.67
  YS02001904           JUNCTION     0.73     1.64     8.27     0  02:15        1.63
  YS02001907           JUNCTION     1.06     1.96     8.25     0  01:51        1.96
  YS02001910           JUNCTION     0.86     1.85     8.36     0  01:51        1.79
  YS02001915           JUNCTION     0.66     1.71     8.43     0  01:51        1.62
  YS02001918           JUNCTION     0.40     1.49     8.56     0  01:51        1.35
  YS02001619           JUNCTION     1.34     1.58     8.51     0  01:45        1.48
  YS02001629           JUNCTION     1.69     1.85     8.40     0  01:46        1.84
  YS02001641           JUNCTION     1.79     1.94     8.37     0  01:48        1.93
  YS02001644           JUNCTION     1.79     1.92     8.35     0  01:48        1.92
  YS02001652           JUNCTION     1.65     2.08     8.67     0  03:58        1.93
  YS02001655           JUNCTION     1.41     2.01     8.86     0  03:58        1.75
  YS02001920           JUNCTION     0.50     1.63     8.64     0  01:51        1.46
  YS02001923           JUNCTION     0.33     1.42     8.68     0  01:51        1.25
  YS02001926           JUNCTION     0.36     1.37     8.81     0  01:51        1.12
  YS02001929           JUNCTION     0.22     0.97     8.66     0  01:52        0.94
  YS02001658           JUNCTION     1.13     1.92     9.06     0  03:58        1.51
  YS02001661           JUNCTION     0.89     1.97     9.38     0  03:58        1.28
  YS02001664           JUNCTION     0.40     0.57     8.49     0  03:58        0.56
  YS02001622           JUNCTION     1.36     1.57     8.48     0  01:45        1.50
  YS02001633           JUNCTION     1.78     1.95     8.40     0  02:12        1.94
  YS02001649           JUNCTION     1.84     2.05     8.44     0  03:56        2.05
  YS02001757           JUNCTION     1.97     2.19     8.45     0  03:02        2.18
  YS02001895           JUNCTION     0.63     1.57     8.31     0  01:55        1.56
  YS02001625           JUNCTION     1.64     1.78     8.38     0  01:45        1.78
  YS02163301           JUNCTION     1.72     1.89     8.40     0  01:46        1.88
  YS02163601           JUNCTION     1.83     1.99     8.39     0  01:51        1.99
  YS02164001           JUNCTION     1.77     1.92     8.38     0  02:12        1.91
  YS02001647           JUNCTION     1.63     1.80     8.41     0  04:02        1.79
  YSB1154              JUNCTION     0.27     0.58     9.64     0  01:53        0.58
  YSB6556              JUNCTION     0.16     0.47     9.64     0  01:53        0.47
  YSB1174              JUNCTION     0.22     0.53     9.64     0  01:53        0.53
  YSB1171              JUNCTION     0.42     0.74     9.64     0  01:53        0.74
  YS02006553           JUNCTION     1.07     1.97     8.26     0  02:12        1.97
  YS02006561           JUNCTION     0.40     1.38     8.04     0  01:49        1.35
  YS02006556           JUNCTION     1.03     1.93     8.24     0  02:04        1.93
  YS02006558           JUNCTION     1.07     1.98     8.25     0  02:10        1.97
  YS02001783           JUNCTION     0.62     1.70     7.85     0  01:49        1.68
  YS02001784           JUNCTION     0.62     1.56     7.63     0  01:49        1.55
  YS02001786           JUNCTION     0.55     1.36     7.39     0  01:49        1.30
  YS02001788           JUNCTION     0.46     1.38     7.35     0  01:45        1.12
  YS02001790           JUNCTION     0.56     1.75     7.40     0  01:44        1.29
  YS02001791           JUNCTION     0.50     2.18     7.65     0  06:06        1.27
  YS02001793           JUNCTION     0.66     2.30     7.13     0  01:43        1.80
  WSC                  OUTFALL      0.38     0.48     1.15     0  02:02        0.48
  JK-storage           STORAGE      2.65     5.80     6.60     0  01:44        5.80
  CC-storage           STORAGE      1.22     1.45     8.45     0  03:03        1.45
  XR-storage           STORAGE      7.11     7.72     5.72     0  02:10        7.72
  
  
  *******************
  Node Inflow Summary
  *******************
  
  -------------------------------------------------------------------------------------------------
                                  Maximum  Maximum                  Lateral       Total        Flow
                                  Lateral    Total  Time of Max      Inflow      Inflow     Balance
                                   Inflow   Inflow   Occurrence      Volume      Volume       Error
  Node                 Type           LPS      LPS  days hr:min    10^6 ltr    10^6 ltr     Percent
  -------------------------------------------------------------------------------------------------
  WS02001211           JUNCTION      7.35   389.57     0  04:38       0.207        10.4       0.381
  WS02001212           JUNCTION      0.00   391.74     0  04:38           0        10.4       0.231
  WS02001213           JUNCTION      0.00   393.80     0  04:37           0        10.4       0.261
  WS02003069           JUNCTION      0.32  1345.20     0  02:00     0.00902        22.6       0.136
  WS02003072           JUNCTION      0.00  1345.19     0  02:01           0        22.5       0.165
  WS02003073           JUNCTION      1.82  1347.38     0  02:01      0.0514        22.6       0.184
  WS02003060           JUNCTION     16.53  1344.64     0  02:00       0.466        22.6       0.130
  WS02003066           JUNCTION      0.00   958.20     0  01:55           0        11.8       0.033
  WS02003059           JUNCTION      0.00   396.88     0  04:37           0        10.3       0.372
  WS02003067           JUNCTION      0.00   957.84     0  01:55           0        11.9       0.071
  WS02004401           JUNCTION      0.00   971.09     0  01:53           0        12.1       0.182
  WS02004402           JUNCTION      0.00   970.70     0  01:53           0        12.1       0.170
  WS02004403           JUNCTION      0.00   971.63     0  01:53           0          12       0.155
  WS02004404           JUNCTION      0.16   972.23     0  01:53     0.00457          12       0.115
  WS02004406           JUNCTION      0.00   973.25     0  01:53           0          12       0.281
  WS02004409           JUNCTION      0.00   971.35     0  01:53           0        11.9       0.128
  WS02004410           JUNCTION      0.00   959.05     0  01:54           0        11.9       0.141
  WS02004411           JUNCTION      0.00   956.21     0  01:55           0        11.9       0.144
  WS02004412           JUNCTION      0.00   957.75     0  01:55           0        11.9       0.155
  WS02004413           JUNCTION      0.00   957.90     0  01:55           0        11.9       0.233
  WS02004405           JUNCTION      0.04   973.81     0  01:53     0.00107          12       0.172
  WS02006109           JUNCTION      1.23   939.55     0  01:53      0.0347        12.1       0.172
  WS02006110           JUNCTION      0.00   939.27     0  01:53           0        12.1       0.170
  WS02006111           JUNCTION      0.00   938.90     0  01:53           0          12       0.040
  WS02006112           JUNCTION     30.57   969.33     0  01:53       0.112        12.1       0.254
  WS02006113           JUNCTION      0.00   939.32     0  01:53           0        12.1       0.099
  WS02006115           JUNCTION      0.00   969.71     0  01:53           0        12.1       0.178
  WS02006116           JUNCTION      0.00   970.68     0  01:53           0        12.1       0.152
  WS02006230           JUNCTION     10.28   537.19     0  06:22        0.29        9.01       0.181
  WS02006231           JUNCTION      0.00   527.90     0  06:22           0        8.73       0.130
  WS02006232           JUNCTION      0.00   528.28     0  06:22           0        8.74       0.210
  WS02006234           JUNCTION      0.00   528.87     0  06:22           0        8.75       0.123
  WS02006235           JUNCTION      0.00   530.02     0  04:52           0        8.83       0.133
  WS02006238           JUNCTION      0.00   413.30     0  07:20           0        5.49       0.126
  WS02006240           JUNCTION      0.00   413.74     0  07:20           0        5.47       0.301
  WS02006242           JUNCTION      0.00   414.06     0  07:20           0        5.46       0.350
  WS02006243           JUNCTION      0.00   414.20     0  07:20           0        5.45       0.188
  WS02006245           JUNCTION      0.00   414.17     0  07:20           0        5.45       0.261
  WS02006247           JUNCTION      0.00   413.83     0  07:20           0        5.45       0.210
  WS02006248           JUNCTION      0.00   413.18     0  07:20           0        5.48       0.180
  WS02006249           JUNCTION      0.00   465.34     0  02:30           0        5.99       0.249
  WS02006239           JUNCTION      0.00   412.79     0  07:20           0        5.48       0.160
  WS02006251           JUNCTION      0.08   464.30     0  02:30     0.00217        6.06       0.259
  WS02006252           JUNCTION      0.00   400.00     0  03:40           0         5.4       0.010
  WS02006253           JUNCTION      3.87   156.77     0  01:54      0.0129       0.667       1.563
  WS02006256           JUNCTION      0.00   983.00     0  02:00           0          12       0.009
  WS02004138           JUNCTION      0.00   380.00     0  00:00           0        10.3       0.061
  WS02004139           JUNCTION      0.32   395.85     0  00:00     0.00905        10.3       0.439
  WS02004407           JUNCTION      0.00   973.72     0  01:53           0          12       0.064
  WS02006228           JUNCTION      0.00   938.16     0  01:53           0        12.1       0.137
  WS02006229           JUNCTION      0.00   994.76     0  01:52           0        12.1       0.125
  WS02006280           JUNCTION      0.00   736.09     0  01:54           0        3.11       0.013
  WS02006284           JUNCTION      0.10   735.83     0  01:54      0.0027        3.11       0.020
  WS02006287           JUNCTION      0.00   735.65     0  01:54           0        3.11       0.023
  WSF200               JUNCTION      0.00   958.27     0  01:56           0        11.8       0.030
  HS02004901           JUNCTION     37.34    37.34     0  01:51       0.136       0.136       1.311
  HS02004881           JUNCTION     14.85   153.29     0  01:54       0.053       0.601       0.110
  HS02004876           JUNCTION     26.74   139.06     0  01:54       0.103       0.549       0.099
  HS02004870           JUNCTION     27.42   112.65     0  01:54         0.1       0.446       0.025
  HS02004862           JUNCTION     26.01    86.18     0  01:54       0.116       0.346       0.049
  HS02004856           JUNCTION     20.52    60.23     0  01:54      0.0756       0.231       0.629
  HS02004852           JUNCTION      0.00    40.37     0  01:54           0       0.155       0.036
  HS02004848           JUNCTION     56.97    56.97     0  01:56       0.261       0.261       0.018
  HS02004842           JUNCTION      0.00    18.18     0  02:06           0       0.119      12.306
  HS02004837           JUNCTION     52.39    67.87     0  01:54       0.353       0.459       0.177
  HS02004830           JUNCTION      0.15    67.98     0  01:54     0.00423       0.449       0.276
  HS02004824           JUNCTION     66.79   134.68     0  01:56       0.318       0.767       0.071
  HS02004817           JUNCTION      0.60   136.87     0  01:57      0.0169       0.783       2.176
  HS02004807           JUNCTION     50.62   184.26     0  01:55       0.184       0.952       0.460
  HS02004802           JUNCTION      0.00   183.95     0  01:56           0        0.95       0.417
  HS02004799           JUNCTION     40.40   470.75     0  01:53        0.15        1.87       0.160
  HS02004792           JUNCTION    183.39   430.98     0  01:53       0.729        1.72       0.023
  HS02004788           JUNCTION     59.53   248.80     0  01:53       0.273       0.991       0.039
  HS02004785           JUNCTION      0.15   189.56     0  01:53     0.00423        0.72       0.069
  HS02004777           JUNCTION      0.03   189.71     0  01:52    0.000846        0.72       0.728
  HS02004770           JUNCTION    153.57   190.37     0  01:52       0.587       0.722       0.429
  HS02004480           JUNCTION      0.00   554.34     0  01:53           0        2.18       0.044
  HS02004479           JUNCTION      0.00    83.75     0  01:53           0       0.323       0.229
  HS02004478           JUNCTION      0.00   735.60     0  01:54           0        3.11       0.010
  YS02001745           JUNCTION    446.25   446.25     0  02:16        3.95        3.95       0.265
  YS02001748           JUNCTION      0.04   451.35     0  02:16     0.00127        3.95       0.592
  YS02001751           JUNCTION      0.01   451.28     0  02:16     0.00031        3.92       0.605
  YS02001754           JUNCTION      0.26   452.10     0  02:16     0.00733        3.91       0.637
  YS02001762           JUNCTION      0.00   434.49     0  01:55           0        2.53       0.844
  YS02001765           JUNCTION      0.00   435.58     0  01:55           0        2.53       0.967
  YS02001767           JUNCTION      0.54   434.92     0  01:55      0.0151        2.55       1.412
  YS02001770           JUNCTION    558.16   714.06     0  03:01        4.36        5.27       0.591
  YS02001774           JUNCTION      0.00   714.25     0  03:01           0        3.62       0.685
  YS02001779           JUNCTION      0.01   714.35     0  03:01    0.000141        3.59       0.434
  YS02001882           JUNCTION      0.00    63.81     0  01:48           0       0.034       6.518
  YS02001884           JUNCTION      0.00    72.35     0  01:47           0      0.0719       9.568
  YS02001759           JUNCTION    542.57   876.49     0  01:56        4.04        5.63       0.408
  YS02001887           JUNCTION    676.21   677.61     0  02:12        4.57         4.6       0.188
  YS02001890           JUNCTION      0.00   677.46     0  02:13           0        4.55       0.206
  YS02001898           JUNCTION      0.00   525.06     0  01:51           0        4.27       0.067
  YS02001901           JUNCTION      0.00   525.50     0  01:51           0        4.27       0.164
  YS02001904           JUNCTION      0.00   526.86     0  01:51           0        4.26       0.149
  YS02001907           JUNCTION      0.00  1165.84     0  01:52           0        9.98       0.248
  YS02001910           JUNCTION      0.00   650.94     0  01:52           0        5.74       0.210
  YS02001915           JUNCTION    394.70   651.23     0  01:52        3.28        5.79       0.100
  YS02001918           JUNCTION      0.00   368.45     0  01:52           0        2.54       0.058
  YS02001619           JUNCTION    388.44   388.44     0  02:16         3.3         3.3       0.366
  YS02001629           JUNCTION      0.00   217.69     0  01:48           0        1.43       2.033
  YS02001641           JUNCTION      0.00   455.66     0  01:48           0        5.09       0.417
  YS02001644           JUNCTION    424.99  1560.14     0  03:01        3.82        13.3       0.198
  YS02001652           JUNCTION      0.00   517.87     0  02:11           0        3.44       0.676
  YS02001655           JUNCTION      0.15   518.31     0  02:11     0.00434        3.47       0.732
  YS02001920           JUNCTION      2.87   367.61     0  01:52      0.0809        2.52       0.115
  YS02001923           JUNCTION      0.04   300.88     0  01:53     0.00106        2.42       0.050
  YS02001926           JUNCTION      0.05   348.76     0  01:51     0.00147        2.39       0.130
  YS02001929           JUNCTION    206.66   206.66     0  03:01        2.37        2.38       0.023
  YS02001658           JUNCTION      0.00   518.33     0  02:11           0        3.49       0.696
  YS02001661           JUNCTION      0.00   750.29     0  01:56           0        3.88      -0.187
  YS02001664           JUNCTION    496.40   496.40     0  02:16        3.49        3.89       0.143
  YS02001622           JUNCTION      0.00   389.13     0  02:15           0        3.29       0.971
  YS02001633           JUNCTION    431.52   455.17     0  01:48        3.93        5.24       0.613
  YS02001649           JUNCTION      0.00  1005.35     0  01:49           0        6.92       0.536
  YS02001757           JUNCTION      0.00  2144.50     0  01:55           0        11.1       0.828
  YS02001895           JUNCTION      0.00   523.89     0  01:51           0        4.27       0.123
  YS02001625           JUNCTION      0.00   435.81     0  02:16           0        3.34       1.186
  YS02163301           JUNCTION      0.00   226.39     0  01:45           0        1.42       1.689
  YS02163601           JUNCTION      0.11   455.34     0  01:48      0.0031        5.11       0.589
  YS02164001           JUNCTION      0.00   455.15     0  01:48           0        5.09       0.389
  YS02001647           JUNCTION      0.00   801.12     0  03:01           0        5.93       0.482
  YSB1154              JUNCTION     46.91    46.91     0  01:52        0.18       0.181       0.806
  YSB6556              JUNCTION      0.00    46.64     0  01:52           0       0.182       0.696
  YSB1174              JUNCTION     39.22    39.22     0  01:50       0.134       0.134       0.962
  YSB1171              JUNCTION      0.00    84.02     0  01:52           0       0.322       2.011
  YS02006553           JUNCTION      0.00   717.75     0  03:35           0        7.29       0.216
  YS02006561           JUNCTION      0.00   983.20     0  02:11           0        11.5       0.007
  YS02006556           JUNCTION      0.00   717.81     0  03:35           0        7.29       0.156
  YS02006558           JUNCTION    590.63   984.29     0  02:11        4.24        11.5       0.044
  YS02001783           JUNCTION      0.00   982.96     0  02:09           0        11.5       0.020
  YS02001784           JUNCTION      1.06   985.00     0  02:10      0.0299        11.5       0.031
  YS02001786           JUNCTION      0.06   983.56     0  02:15     0.00159        11.5       0.030
  YS02001788           JUNCTION      0.07   983.50     0  02:11       0.002        11.5       0.018
  YS02001790           JUNCTION      0.15   983.92     0  02:14     0.00437        11.5       0.013
  YS02001791           JUNCTION      0.00   983.80     0  02:11           0        11.5       0.009
  YS02001793           JUNCTION      0.00   985.59     0  02:09           0        11.5      -0.042
  WSC                  OUTFALL       0.00  1347.96     0  02:02           0        22.5       0.000
  JK-storage           STORAGE       0.00   984.77     0  02:12           0        11.6      -9.467
  CC-storage           STORAGE       0.00  2147.02     0  01:55           0        8.98       0.699
  XR-storage           STORAGE    1054.62  1054.62     0  03:01        15.5        16.1      -0.006
  
  
  **********************
  Node Surcharge Summary
  **********************
  
  Surcharging occurs when water rises above the top of the highest conduit.
  ---------------------------------------------------------------------
                                               Max. Height   Min. Depth
                                   Hours       Above Crown    Below Rim
  Node                 Type      Surcharged         Meters       Meters
  ---------------------------------------------------------------------
  WS02004401           JUNCTION        1.10          0.313        1.347
  WS02004402           JUNCTION        1.14          0.297        1.443
  WS02004403           JUNCTION        1.15          0.269        1.761
  WS02004404           JUNCTION        1.41          0.311        2.469
  WS02004406           JUNCTION        1.25          0.206        2.244
  WS02004413           JUNCTION        0.46          0.032        2.168
  WS02004405           JUNCTION        1.29          0.279        2.521
  WS02006109           JUNCTION        4.72          0.939        0.881
  WS02006110           JUNCTION        3.20          0.637        1.213
  WS02006111           JUNCTION        0.34          0.202        1.668
  WS02006112           JUNCTION        3.61          0.662        1.018
  WS02006113           JUNCTION        0.38          0.264        1.666
  WS02006115           JUNCTION        0.76          0.308        1.942
  WS02006116           JUNCTION        0.82          0.292        1.998
  WS02006230           JUNCTION        2.82          0.909        0.661
  WS02006231           JUNCTION        3.52          0.914        0.616
  WS02006232           JUNCTION        4.82          1.014        0.466
  WS02006234           JUNCTION        4.31          0.876        0.364
  WS02006235           JUNCTION        4.49          0.895        0.395
  WS02006238           JUNCTION        4.60          0.895        0.535
  WS02006240           JUNCTION        4.38          0.733        0.657
  WS02006242           JUNCTION        4.69          0.729        0.091
  WS02006243           JUNCTION        3.80          0.590        0.180
  WS02006245           JUNCTION        3.66          0.515        0.335
  WS02006247           JUNCTION        3.72          0.494        0.266
  WS02006248           JUNCTION        3.15          0.380        0.000
  WS02006249           JUNCTION        3.33          0.390        0.000
  WS02006239           JUNCTION        4.43          0.799        0.491
  WS02006251           JUNCTION        1.70          0.248        0.932
  WS02006252           JUNCTION        3.63          0.429        0.671
  WS02006253           JUNCTION        1.94          0.303        2.177
  WS02006256           JUNCTION        6.97          2.050        0.000
  WS02006228           JUNCTION        4.67          1.111        1.089
  HS02004817           JUNCTION        0.14          0.011        1.729
  YS02001748           JUNCTION        6.04          0.316        0.874
  YS02001751           JUNCTION        6.09          0.587        0.613
  YS02001754           JUNCTION        6.14          0.801        0.349
  YS02001762           JUNCTION        6.19          1.051        0.099
  YS02001765           JUNCTION        6.18          0.994        0.106
  YS02001767           JUNCTION        6.18          0.950        0.080
  YS02001770           JUNCTION        6.18          0.902        0.018
  YS02001774           JUNCTION        6.19          0.988        0.062
  YS02001779           JUNCTION        6.12          0.680        0.000
  YS02001882           JUNCTION        1.80          0.830        0.000
  YS02001884           JUNCTION        1.82          0.870        0.000
  YS02001759           JUNCTION        6.20          1.084        0.126
  YS02001887           JUNCTION        1.87          0.889        0.061
  YS02001890           JUNCTION        1.89          0.760        0.000
  YS02001898           JUNCTION        1.77          0.537        0.203
  YS02001901           JUNCTION        1.85          0.678        0.192
  YS02001904           JUNCTION        1.83          0.643        0.207
  YS02001907           JUNCTION        2.37          0.950        0.000
  YS02001910           JUNCTION        1.93          0.852        0.248
  YS02001915           JUNCTION        1.79          0.708        0.292
  YS02001918           JUNCTION        1.65          0.491        0.319
  YS02001619           JUNCTION        6.09          0.577        0.033
  YS02001629           JUNCTION        6.08          0.470        0.000
  YS02001641           JUNCTION        6.18          0.935        0.165
  YS02001644           JUNCTION        6.18          0.920        0.000
  YS02001652           JUNCTION        6.15          1.046        0.084
  YS02001655           JUNCTION        6.10          1.014        0.186
  YS02001920           JUNCTION        1.68          0.630        0.510
  YS02001923           JUNCTION        0.01          0.213        0.607
  YS02001926           JUNCTION        0.01          0.365        0.535
  YS02001658           JUNCTION        6.05          0.918        0.382
  YS02001661           JUNCTION        0.12          0.905        0.485
  YS02001622           JUNCTION        6.10          0.572        0.048
  YS02001633           JUNCTION        6.17          0.928        0.132
  YS02001649           JUNCTION        6.19          1.050        0.000
  YS02001757           JUNCTION        6.23          1.188        0.022
  YS02001895           JUNCTION        1.78          0.567        0.183
  YS02001625           JUNCTION        6.15          0.780        0.000
  YS02163301           JUNCTION        6.17          0.886        0.144
  YS02163601           JUNCTION        6.20          0.990        0.090
  YS02164001           JUNCTION        6.17          0.920        0.180
  YS02001647           JUNCTION        6.15          0.798        0.102
  YS02006553           JUNCTION        2.43          0.971        0.219
  YS02006561           JUNCTION        1.69          0.582        0.568
  YS02006556           JUNCTION        2.10          0.893        0.457
  YS02006558           JUNCTION        2.07          0.878        0.522
  YS02001783           JUNCTION        1.93          0.904        0.696
  YS02001784           JUNCTION        1.91          0.762        0.728
  YS02001786           JUNCTION        1.85          0.565        0.865
  YS02001788           JUNCTION        1.80          0.577        0.903
  YS02001790           JUNCTION        2.41          0.954        0.203
  YS02001791           JUNCTION        2.49          1.380        0.540
  YS02001793           JUNCTION        2.74          1.302        1.298
  
  
  *********************
  Node Flooding Summary
  *********************
  
  Flooding refers to all water that overflows a node, whether it ponds or not.
  --------------------------------------------------------------------------
                                                             Total   Maximum
                                 Maximum   Time of Max       Flood    Ponded
                        Hours       Rate    Occurrence      Volume     Depth
  Node                 Flooded       LPS   days hr:min    10^6 ltr    Meters
  --------------------------------------------------------------------------
  WS02006248              0.22     65.57      0  01:54       0.022     0.000
  WS02006249              1.81    220.40      0  02:30       0.507     0.000
  WS02006256              4.53    828.78      0  02:00       8.626     0.000
  YS02001779              3.19    714.33      0  03:01       3.569     0.000
  YS02001882              0.01      8.05      0  01:48       0.000     0.000
  YS02001884              0.01      6.97      0  01:48       0.000     0.000
  YS02001890              0.81    161.41      0  02:12       0.274     0.000
  YS02001907              1.53    715.07      0  02:16       2.680     0.000
  YS02001629              0.01     28.48      0  01:46       0.000     0.000
  YS02001644              4.73   1560.14      0  03:01      11.676     0.000
  YS02001649              0.01     29.37      0  03:58       0.000     0.000
  YS02001625              2.16    435.58      0  02:16       1.967     0.000
  JK-storage              0.62    575.22      0  01:49       0.648     0.000
  XR-storage              4.62    674.56      0  03:01       4.984     0.000
  
  
  **********************
  Storage Volume Summary
  **********************
  
  --------------------------------------------------------------------------------------------------
                         Average     Avg  Evap Exfil       Maximum     Max    Time of Max    Maximum
                          Volume    Pcnt  Pcnt  Pcnt        Volume    Pcnt     Occurrence    Outflow
  Storage Unit           1000 m3    Full  Loss  Loss       1000 m3    Full    days hr:min        LPS
  --------------------------------------------------------------------------------------------------
  JK-storage               0.133      46     0     0         0.291     100       0  01:44     983.00
  CC-storage               3.403      22     0     0         4.029      26       0  03:03     400.00
  XR-storage               0.853      92     0     0         0.926     100       0  02:10     380.00
  
  
  ***********************
  Outfall Loading Summary
  ***********************
  
  ---------------------------------------------------------------------------------------------------------------------------------
                         Flow       Avg       Max       Total         Total         Total         Total         Total         Total
                         Freq      Flow      Flow      Volume           COD            SS            TN            TP         NH4-N
  Outfall Node           Pcnt       LPS       LPS    10^6 ltr            kg            kg            kg            kg            kg
  ---------------------------------------------------------------------------------------------------------------------------------
  WSC                   99.98    879.69   1347.96      22.521      2704.119      4837.790       145.577        16.570        86.572
  ---------------------------------------------------------------------------------------------------------------------------------
  System                99.98    879.69   1347.96      22.521      2704.119      4837.790       145.577        16.570        86.572
  
  
  ********************
  Link Flow Summary
  ********************
  
  -----------------------------------------------------------------------------
                                 Maximum  Time of Max   Maximum    Max/    Max/
                                  |Flow|   Occurrence   |Veloc|    Full    Full
  Link                 Type          LPS  days hr:min     m/sec    Flow   Depth
  -----------------------------------------------------------------------------
  WS02003066WSF200     CONDUIT    958.27     0  01:56      3.01    0.16    0.33
  WS02006287WS02006284 CONDUIT    735.74     0  01:54      2.45    0.34    0.41
  WS02006284WS02006280 CONDUIT    736.09     0  01:54      2.68    0.31    0.38
  WS02006280WS02006229 CONDUIT    740.92     0  01:52      4.20    0.16    0.58
  WS02006229WS02006228 CONDUIT    938.16     0  01:53      1.87    3.11    1.00
  WS02006256WS02006235 CONDUIT    288.92     0  00:00      4.23    3.06    1.00
  WS02006253WS02006251 CONDUIT    169.88     0  01:51      0.74    0.51    1.00
  WS02006252WS02006251 CONDUIT    405.08     0  06:22      3.22    1.49    1.00
  WS02006251WS02006249 CONDUIT    465.34     0  02:30      1.21    1.34    1.00
  WS02006249WS02006248 CONDUIT    413.18     0  07:20      1.19    2.26    1.00
  WS02006248WS02006247 CONDUIT    413.83     0  07:20      1.16    0.90    1.00
  WS02006247WS02006245 CONDUIT    414.17     0  07:20      1.14    3.28    1.00
  WS02006245WS02006243 CONDUIT    414.20     0  07:20      1.17    1.23    1.00
  WS02006243WS02006242 CONDUIT    414.06     0  07:20      1.08    0.88    1.00
  WS02006242WS02006240 CONDUIT    413.74     0  07:20      1.08    1.64    1.00
  WS02006240WS02006239 CONDUIT    412.79     0  07:20      1.07    1.30    1.00
  WS02006239WS02006238 CONDUIT    413.30     0  07:20      1.07    1.32    1.00
  WS02006238WS02006235 CONDUIT    415.51     0  07:20      1.45    0.93    1.00
  WS02006235WS02006234 CONDUIT    528.87     0  06:22      1.37    5.58    1.00
  WS02006234WS02006232 CONDUIT    528.28     0  06:22      1.39    1.07    1.00
  WS02006232WS02006231 CONDUIT    527.90     0  06:22      1.37    1.11    1.00
  WS02006231WS02006230 CONDUIT    526.91     0  06:22      1.37    7.99    1.00
  WS02006230WS02006229 CONDUIT    537.16     0  04:52      1.40   11.95    1.00
  WS02006228WS02006109 CONDUIT    938.32     0  01:53      1.87    4.10    1.00
  WS02006116WS02004401 CONDUIT    971.09     0  01:53      1.24    1.34    1.00
  WS02006115WS02006116 CONDUIT    970.68     0  01:53      1.24    1.25    1.00
  WS02006113WS02006111 CONDUIT    938.90     0  01:53      2.64    1.13    1.00
  WS02006112WS02006115 CONDUIT    969.71     0  01:53      1.23    0.57    1.00
  WS02006111WS02006112 CONDUIT    939.31     0  01:53      1.87    0.45    1.00
  WS02006110WS02006113 CONDUIT    939.32     0  01:53      1.87    0.85    1.00
  WS02006109WS02006110 CONDUIT    939.27     0  01:53      1.87    1.81    1.00
  WS02004411WS02004412 CONDUIT    957.75     0  01:55      1.26    1.36    0.93
  WS02004401WS02004402 CONDUIT    970.70     0  01:53      1.24    1.17    1.00
  WS02004413WS02003067 CONDUIT    957.84     0  01:55      1.58    0.41    0.72
  WS02004412WS02004413 CONDUIT    957.90     0  01:55      1.24    0.64    0.96
  WS02004410WS02004411 CONDUIT    956.21     0  01:55      1.24    1.31    0.95
  WS02004409WS02004410 CONDUIT    959.05     0  01:54      1.24    1.24    0.97
  WS02004407WS02004409 CONDUIT    971.35     0  01:53      1.74    0.34    0.69
  WS02004406WS02004407 CONDUIT    973.72     0  01:53      1.65    0.44    0.70
  WS02004405WS02004406 CONDUIT    973.25     0  01:53      1.24    1.92    1.00
  WS02004404WS02004405 CONDUIT    973.78     0  01:53      1.24    9.54    1.00
  WS02004403WS02004404 CONDUIT    972.07     0  01:53      1.24    0.70    1.00
  WS02004402WS02004403 CONDUIT    971.63     0  01:53      1.24    1.40    1.00
  WS02004139WS02001211 CONDUIT    382.23     0  04:38      0.90    0.48    0.64
  WS02004138WS02004139 CONDUIT    395.52     0  00:00      3.64    0.08    0.47
  WS02003067WS02003066 CONDUIT    958.20     0  01:55      1.67    0.31    0.51
  WS02001213WS02003059 CONDUIT    396.88     0  04:37      0.89    0.65    0.88
  WS02001212WS02001213 CONDUIT    393.80     0  04:37      1.32    0.61    0.56
  WS02001211WS02001212 CONDUIT    391.74     0  04:38      0.78    0.30    0.72
  WS02003072WS02003073 CONDUIT   1345.56     0  02:01      1.97    2.91    0.58
  WS02003069WS02003072 CONDUIT   1345.19     0  02:01      1.82    0.65    0.62
  WS02003060WS02003069 CONDUIT   1344.88     0  02:00      2.03    0.53    0.57
  WS02003059WS02003060 CONDUIT    400.80     0  04:36      0.95    0.26    0.78
  HS02004901HS02004770 CONDUIT     36.84     0  01:52      0.10    0.14    0.54
  HS02004876HS02004881 CONDUIT    139.08     0  01:54      1.26    1.48    0.16
  HS02004870HS02004876 CONDUIT    112.62     0  01:54      0.85    0.07    0.19
  HS02004842HS02004848 CONDUIT     18.18     0  02:06      0.08    0.01    0.34
  HS02004837HS02004842 CONDUIT     18.64     0  02:07      0.42    0.01    0.35
  HS02004830HS02004837 CONDUIT     67.83     0  01:54      0.68    0.07    0.14
  HS02004824HS02004830 CONDUIT     68.03     0  01:56      0.62    0.09    0.18
  HS02004817HS02004824 CONDUIT    136.27     0  01:57      0.32    0.06    0.60
  HS02004770HS02004777 CONDUIT    189.68     0  01:52      0.49    0.35    0.55
  HS02004799HS02004480 CONDUIT    470.64     0  01:53      1.09    0.59    0.62
  HS02004792HS02004799 CONDUIT    430.88     0  01:53      1.22    0.26    0.50
  HS02004788HS02004792 CONDUIT    248.73     0  01:54      1.29    0.16    0.28
  HS02004785HS02004788 CONDUIT    189.53     0  01:53      0.92    1.43    0.30
  HS02004777HS02004785 CONDUIT    189.41     0  01:53      0.59    0.23    0.46
  HS02004480HS02004478 CONDUIT    554.37     0  01:53      1.59    2.33    0.50
  HS02004479HS02004480 CONDUIT     83.71     0  01:53      0.37    0.08    0.59
  HS02004862HS02004870 CONDUIT     86.18     0  01:55      0.82    0.09    0.15
  HS02004848HS02004852 CONDUIT     40.37     0  01:54      0.54    0.05    0.11
  HS02004856HS02004862 CONDUIT     60.18     0  01:54      0.61    0.06    0.14
  HS02004852HS02004856 CONDUIT     40.43     0  01:55      0.35    0.05    0.17
  HS02004802HS02004478 CONDUIT    184.71     0  01:57      0.53    0.16    0.50
  HS02004478WS02006287 CONDUIT    735.65     0  01:54      2.18    0.21    0.38
  HS02004817HS02004807 CONDUIT    137.06     0  01:57      0.26    0.08    0.77
  HS02004807HS02004802 CONDUIT    183.95     0  01:56      0.47    0.35    0.56
  YS02001759YS02001757 CONDUIT    876.24     0  01:57      1.12    0.62    1.00
  YS02001762YS02001759 CONDUIT    433.48     0  01:55      0.55    0.50    1.00
  YS02001765YS02001762 CONDUIT    434.49     0  01:55      0.55    0.41    1.00
  YS02001770YS02001767 CONDUIT    434.39     0  01:55      0.55    1.72    1.00
  YS02001774YS02001770 CONDUIT    714.25     0  03:01      0.91    0.46    1.00
  YS02001779YS02001774 CONDUIT    714.35     0  03:01      0.91    0.36    1.00
  YS02001649YS02001757 CONDUIT   1005.01     0  01:49      1.28    0.61    1.00
  YS02001767YS02001765 CONDUIT    435.58     0  01:55      0.55    0.55    1.00
  YS02006561YS02001783 CONDUIT    982.96     0  02:09      2.15    0.51    1.00
  YS02001783YS02001784 CONDUIT    983.94     0  02:10      1.96    1.36    1.00
  YS02001784YS02001785 CONDUIT    983.51     0  02:15      1.96    2.29    1.00
  YS02001788YS02001790 CONDUIT    983.76     0  02:14      2.44    0.73    1.00
  YS02001790YS02001791 CONDUIT    983.80     0  02:11      2.91    1.07    1.00
  YS02001791YS02001793 CONDUIT    985.59     0  02:09      5.76    0.42    1.00
  YS02001910YS02001907 CONDUIT    651.42     0  01:52      0.83    0.37    1.00
  YS02001786YS02001788 CONDUIT    983.43     0  02:11      2.31    1.89    1.00
  YS02001915YS02001910 CONDUIT    650.94     0  01:52      0.83    0.32    1.00
  YS02001918YS02001915 CONDUIT    370.69     0  01:52      0.48    0.20    1.00
  YS02001923YS02001920 CONDUIT    364.74     0  01:52      0.82    0.16    1.00
  YS02001926YS02001923 CONDUIT    315.57     0  01:51      0.92    0.45    1.00
  YS02001929YS02001926 CONDUIT    248.72     0  01:52      0.98    0.12    0.99
  YS02001920YS02001918 CONDUIT    368.45     0  01:52      0.77    0.36    1.00
  YS02001629YS02163301 CONDUIT    226.39     0  01:45      0.29    0.28    1.00
  YS02001619YS02001622 CONDUIT    389.13     0  02:15      0.74    0.57    1.00
  YS02001622YS02001625 CONDUIT    388.86     0  02:16      0.50    0.21    1.00
  YS02001625YS02001629 CONDUIT    217.69     0  01:48      0.29    0.10    1.00
  YS02163301YS02001633 CONDUIT    227.95     0  01:45      0.29    0.21    1.00
  YS02163601YS02164001 CONDUIT    455.15     0  01:48      0.58    0.40    1.00
  YS02164001YS02001641 CONDUIT    455.66     0  01:48      0.58    0.62    1.00
  YS02001641YS02001644 CONDUIT    455.59     0  01:48      0.58    1.47    1.00
  YS02001647YS02001649 CONDUIT    801.12     0  03:01      1.02    0.42    1.00
  YS02006553YS02006556 CONDUIT    717.81     0  03:35      0.91    0.61    1.00
  YS02006556YS02006558 CONDUIT    717.90     0  03:35      0.91    0.57    1.00
  YSB6556YSB1171       CONDUIT     46.62     0  01:54      0.14    0.05    0.84
  YS02001907YS02006553 CONDUIT    717.75     0  03:35      0.80    0.84    1.00
  YS02006558YS02006561 CONDUIT    983.20     0  02:11      3.48    2.17    1.00
  YS02001633YS02163601 CONDUIT    455.23     0  01:48      0.58    0.48    1.00
  YS02001644YS02001647 CONDUIT    801.21     0  03:01      1.02    0.47    1.00
  YS02001745YS02001748 CONDUIT    451.31     0  02:16      1.67    0.17    0.98
  YS02001748YS02001751 CONDUIT    451.27     0  02:16      1.21    0.23    1.00
  YS02001751YS02001754 CONDUIT    451.84     0  02:16      1.02    0.22    1.00
  YS02001754YS02001757 CONDUIT    451.20     0  02:16      0.57    0.18    1.00
  YS02001882YS02001884 CONDUIT     63.81     0  01:48      0.16    0.07    1.00
  YS02001884YS02001887 CONDUIT     72.35     0  01:47      0.12    0.10    1.00
  YS02001890YS02001895 CONDUIT    523.89     0  01:51      0.67    0.24    1.00
  YS02001895YS02001898 CONDUIT    525.06     0  01:51      0.67    0.91    1.00
  YS02001898YS02001901 CONDUIT    525.50     0  01:51      0.67    0.34    1.00
  YS02001901YS02001904 CONDUIT    526.86     0  01:51      0.67    0.82    1.00
  YS02001904YS02001907 CONDUIT    526.11     0  01:51      0.67    0.18    1.00
  YS02001887YS02001890 CONDUIT    677.46     0  02:13      0.86    1.16    1.00
  YS02001652YS02001649 CONDUIT    517.64     0  02:11      0.71    0.26    1.00
  YS02001655YS02001652 CONDUIT    517.87     0  02:11      1.09    0.25    1.00
  YS02001658YS02001655 CONDUIT    518.15     0  02:11      1.41    0.22    1.00
  YS02001661YS02001658 CONDUIT    518.33     0  02:11      1.78    0.20    1.00
  YS02001664YS02001661 CONDUIT    750.29     0  01:56      1.69    0.24    0.76
  YSB1154YSB6556       CONDUIT     46.64     0  01:52      0.16    0.08    0.75
  YSB1174YSB1171       CONDUIT     38.37     0  01:50      0.11    0.06    0.87
  YSB1171HS02004479    CONDUIT     83.75     0  01:53      0.54    0.06    0.70
  HS02004881HS02006253 CONDUIT    153.29     0  01:54      2.70    0.03    0.54
  YS02001793JiankangQianchi CONDUIT    984.77     0  02:12     16.46    0.08    1.00
  YS02001757CaochengTiaoxuchi CONDUIT   2147.02     0  01:55      3.55    0.94    1.00
  WSF200WS02003060     CONDUIT    958.75     0  01:55      1.98    0.21    0.45
  1                    CONDUIT   1347.96     0  02:02      3.60    0.47    0.48
  CC-Pump-1            PUMP       200.00     0  02:20              1.00
  CC-Pump-2            PUMP       200.00     0  03:40              1.00
  JK-Pump-1            PUMP       300.00     0  00:00              1.00
  JK-Pump-2            PUMP       683.00     0  02:00              1.00
  XR-Pump-1            PUMP        95.00     0  00:00              1.00
  XR-Pump-2            PUMP        95.00     0  00:00              1.00
  XR-Pump-3            PUMP        95.00     0  00:00              1.00
  XR-Pump-4            PUMP        95.00     0  00:00              1.00
  
  
  ***************************
  Flow Classification Summary
  ***************************
  
  -------------------------------------------------------------------------------------
                      Adjusted    ---------- Fraction of Time in Flow Class ---------- 
                       /Actual         Up    Down  Sub   Sup   Up    Down  Norm  Inlet 
  Conduit               Length    Dry  Dry   Dry   Crit  Crit  Crit  Crit  Ltd   Ctrl  
  -------------------------------------------------------------------------------------
  WS02003066WSF200        1.00   0.01  0.02  0.00  0.00  0.97  0.00  0.00  0.44  0.00
  WS02006287WS02006284    1.00   0.03  0.01  0.00  0.63  0.33  0.00  0.00  0.63  0.00
  WS02006284WS02006280    1.00   0.04  0.00  0.00  0.00  0.00  0.00  0.96  0.00  0.00
  WS02006280WS02006229    1.00   0.04  0.00  0.00  0.02  0.03  0.00  0.91  0.02  0.00
  WS02006229WS02006228    1.00   0.00  0.00  0.00  1.00  0.00  0.00  0.00  0.00  0.00
  WS02006256WS02006235    1.00   0.00  0.00  0.00  1.00  0.00  0.00  0.00  0.00  0.00
  WS02006253WS02006251    1.00   0.02  0.01  0.00  0.96  0.00  0.01  0.00  0.00  0.00
  WS02006252WS02006251    1.00   0.09  0.00  0.00  0.20  0.00  0.71  0.00  0.00  0.00
  WS02006251WS02006249    1.00   0.00  0.00  0.00  1.00  0.00  0.00  0.00  0.16  0.00
  WS02006249WS02006248    1.00   0.00  0.01  0.00  0.95  0.00  0.04  0.00  0.00  0.00
  WS02006248WS02006247    1.00   0.01  0.00  0.00  0.99  0.00  0.00  0.00  0.07  0.00
  WS02006247WS02006245    1.00   0.00  0.00  0.00  0.99  0.00  0.00  0.00  0.00  0.00
  WS02006245WS02006243    1.00   0.00  0.00  0.00  0.97  0.00  0.00  0.02  0.00  0.00
  WS02006243WS02006242    1.00   0.00  0.00  0.00  1.00  0.00  0.00  0.00  0.17  0.00
  WS02006242WS02006240    1.00   0.00  0.00  0.00  1.00  0.00  0.00  0.00  0.00  0.00
  WS02006240WS02006239    1.00   0.00  0.00  0.00  0.96  0.00  0.00  0.04  0.01  0.00
  WS02006239WS02006238    1.00   0.00  0.00  0.00  1.00  0.00  0.00  0.00  0.10  0.00
  WS02006238WS02006235    1.00   0.00  0.00  0.00  1.00  0.00  0.00  0.00  0.00  0.00
  WS02006235WS02006234    1.00   0.00  0.00  0.00  0.97  0.00  0.03  0.00  0.00  0.00
  WS02006234WS02006232    1.00   0.00  0.00  0.00  1.00  0.00  0.00  0.00  0.06  0.00
  WS02006232WS02006231    1.00   0.00  0.00  0.00  1.00  0.00  0.00  0.00  0.00  0.00
  WS02006231WS02006230    1.00   0.00  0.00  0.00  0.82  0.00  0.18  0.00  0.00  0.00
  WS02006230WS02006229    1.00   0.00  0.00  0.00  1.00  0.00  0.00  0.00  0.00  0.00
  WS02006228WS02006109    1.00   0.00  0.00  0.00  1.00  0.00  0.00  0.00  0.00  0.00
  WS02006116WS02004401    1.00   0.01  0.00  0.00  0.99  0.00  0.00  0.00  0.00  0.00
  WS02006115WS02006116    1.00   0.01  0.00  0.00  0.99  0.00  0.00  0.00  0.00  0.00
  WS02006113WS02006111    1.00   0.01  0.00  0.00  0.06  0.93  0.00  0.00  0.13  0.00
  WS02006112WS02006115    1.00   0.01  0.00  0.00  0.99  0.00  0.00  0.00  0.00  0.00
  WS02006111WS02006112    1.00   0.01  0.00  0.00  0.99  0.00  0.00  0.00  0.82  0.00
  WS02006110WS02006113    1.00   0.00  0.00  0.00  0.99  0.00  0.00  0.00  0.00  0.00
  WS02006109WS02006110    1.00   0.00  0.00  0.00  0.99  0.00  0.00  0.00  0.00  0.00
  WS02004411WS02004412    1.00   0.02  0.00  0.00  0.98  0.00  0.00  0.00  0.00  0.00
  WS02004401WS02004402    1.00   0.01  0.00  0.00  0.99  0.00  0.00  0.00  0.00  0.00
  WS02004413WS02003067    1.00   0.02  0.01  0.00  0.00  0.00  0.98  0.00  0.00  0.00
  WS02004412WS02004413    1.00   0.02  0.00  0.00  0.98  0.00  0.00  0.00  0.01  0.00
  WS02004410WS02004411    1.00   0.01  0.00  0.00  0.99  0.00  0.00  0.00  0.00  0.00
  WS02004409WS02004410    1.00   0.01  0.00  0.00  0.99  0.00  0.00  0.00  0.02  0.00
  WS02004407WS02004409    1.00   0.01  0.00  0.00  0.98  0.00  0.00  0.00  0.95  0.00
  WS02004406WS02004407    1.00   0.00  0.01  0.00  0.99  0.00  0.00  0.00  0.00  0.00
  WS02004405WS02004406    1.00   0.00  0.00  0.00  1.00  0.00  0.00  0.00  0.00  0.00
  WS02004404WS02004405    1.00   0.00  0.00  0.00  1.00  0.00  0.00  0.00  0.00  0.00
  WS02004403WS02004404    1.00   0.00  0.01  0.00  0.99  0.00  0.00  0.00  0.00  0.00
  WS02004402WS02004403    1.00   0.01  0.00  0.00  0.99  0.00  0.00  0.00  0.00  0.00
  WS02004139WS02001211    1.00   0.00  0.00  0.00  1.00  0.00  0.00  0.00  0.00  0.00
  WS02004138WS02004139    1.00   0.00  0.00  0.00  1.00  0.00  0.00  0.00  1.00  0.00
  WS02003067WS02003066    1.00   0.02  0.00  0.00  0.97  0.00  0.00  0.00  0.00  0.00
  WS02001213WS02003059    1.00   0.00  0.00  0.00  1.00  0.00  0.00  0.00  0.00  0.00
  WS02001212WS02001213    1.00   0.00  0.00  0.00  0.95  0.00  0.05  0.00  0.00  0.00
  WS02001211WS02001212    1.00   0.00  0.00  0.00  1.00  0.00  0.00  0.00  0.00  0.00
  WS02003072WS02003073    1.00   0.00  0.00  0.00  0.00  0.00  0.00  1.00  0.00  0.00
  WS02003069WS02003072    1.00   0.00  0.00  0.00  1.00  0.00  0.00  0.00  0.06  0.00
  WS02003060WS02003069    1.00   0.00  0.00  0.00  0.99  0.01  0.00  0.00  0.05  0.00
  WS02003059WS02003060    1.00   0.00  0.00  0.00  1.00  0.00  0.00  0.00  0.01  0.00
  HS02004901HS02004770    1.00   0.03  0.00  0.00  0.97  0.00  0.00  0.00  0.00  0.00
  HS02004876HS02004881    1.00   0.01  0.00  0.00  0.91  0.08  0.00  0.00  0.00  0.00
  HS02004870HS02004876    1.00   0.00  0.00  0.00  0.99  0.00  0.00  0.00  0.95  0.00
  HS02004842HS02004848    1.00   0.00  0.03  0.00  0.97  0.00  0.00  0.00  0.56  0.00
  HS02004837HS02004842    1.00   0.00  0.00  0.00  1.00  0.00  0.00  0.00  0.11  0.00
  HS02004830HS02004837    1.00   0.00  0.00  0.00  1.00  0.00  0.00  0.00  0.99  0.00
  HS02004824HS02004830    1.00   0.00  0.00  0.00  1.00  0.00  0.00  0.00  0.03  0.00
  HS02004817HS02004824    1.00   0.00  0.00  0.00  1.00  0.00  0.00  0.00  0.92  0.00
  HS02004770HS02004777    1.00   0.00  0.03  0.00  0.97  0.00  0.00  0.00  0.02  0.00
  HS02004799HS02004480    1.00   0.00  0.01  0.00  0.96  0.00  0.03  0.00  0.00  0.00
  HS02004792HS02004799    1.00   0.00  0.00  0.00  1.00  0.00  0.00  0.00  0.98  0.00
  HS02004788HS02004792    1.00   0.00  0.00  0.00  1.00  0.00  0.00  0.00  0.98  0.00
  HS02004785HS02004788    1.00   0.00  0.00  0.00  1.00  0.00  0.00  0.00  0.00  0.00
  HS02004777HS02004785    1.00   0.00  0.00  0.00  1.00  0.00  0.00  0.00  0.11  0.00
  HS02004480HS02004478    1.00   0.03  0.00  0.00  0.68  0.00  0.00  0.29  0.00  0.00
  HS02004479HS02004480    1.00   0.01  0.00  0.00  0.99  0.00  0.00  0.00  0.11  0.00
  HS02004862HS02004870    1.00   0.00  0.00  0.00  1.00  0.00  0.00  0.00  0.03  0.00
  HS02004848HS02004852    1.00   0.03  0.00  0.00  0.97  0.00  0.00  0.00  0.79  0.00
  HS02004856HS02004862    1.00   0.00  0.04  0.00  0.96  0.00  0.00  0.00  0.84  0.00
  HS02004852HS02004856    1.00   0.03  0.00  0.00  0.96  0.00  0.00  0.00  0.77  0.00
  HS02004802HS02004478    1.00   0.03  0.00  0.00  0.96  0.00  0.00  0.00  0.02  0.00
  HS02004478WS02006287    1.00   0.04  0.00  0.00  0.75  0.21  0.00  0.00  0.62  0.00
  HS02004817HS02004807    1.00   0.00  0.03  0.00  0.97  0.00  0.00  0.00  0.01  0.00
  HS02004807HS02004802    1.00   0.03  0.00  0.00  0.96  0.00  0.00  0.00  0.00  0.00
  YS02001759YS02001757    1.00   0.00  0.00  0.00  1.00  0.00  0.00  0.00  0.15  0.00
  YS02001762YS02001759    1.00   0.00  0.00  0.00  1.00  0.00  0.00  0.00  0.02  0.00
  YS02001765YS02001762    1.00   0.00  0.00  0.00  1.00  0.00  0.00  0.00  0.13  0.00
  YS02001770YS02001767    1.00   0.00  0.00  0.00  1.00  0.00  0.00  0.00  0.00  0.00
  YS02001774YS02001770    1.00   0.00  0.03  0.00  0.97  0.00  0.00  0.00  0.02  0.00
  YS02001779YS02001774    1.00   0.00  0.00  0.00  1.00  0.00  0.00  0.00  0.17  0.00
  YS02001649YS02001757    1.00   0.00  0.00  0.00  1.00  0.00  0.00  0.00  0.15  0.00
  YS02001767YS02001765    1.00   0.00  0.00  0.00  1.00  0.00  0.00  0.00  0.00  0.00
  YS02006561YS02001783    1.00   0.04  0.00  0.00  0.33  0.63  0.00  0.00  0.42  0.00
  YS02001783YS02001784    1.00   0.00  0.04  0.00  0.96  0.00  0.00  0.00  0.00  0.00
  YS02001784YS02001785    1.00   0.00  0.00  0.00  1.00  0.00  0.00  0.00  0.16  0.00
  YS02001788YS02001790    1.00   0.00  0.00  0.00  0.38  0.62  0.00  0.00  0.36  0.00
  YS02001790YS02001791    1.00   0.00  0.00  0.00  0.35  0.65  0.00  0.00  0.44  0.00
  YS02001791YS02001793    1.00   0.00  0.00  0.00  0.37  0.63  0.00  0.00  0.02  0.00
  YS02001910YS02001907    1.00   0.00  0.00  0.00  0.99  0.00  0.00  0.01  0.12  0.00
  YS02001786YS02001788    1.00   0.00  0.00  0.00  0.37  0.63  0.00  0.00  0.00  0.00
  YS02001915YS02001910    1.00   0.00  0.00  0.00  0.99  0.01  0.00  0.00  0.13  0.00
  YS02001918YS02001915    1.00   0.00  0.00  0.00  0.99  0.01  0.00  0.00  0.51  0.00
  YS02001923YS02001920    1.00   0.00  0.00  0.00  1.00  0.00  0.00  0.00  0.74  0.00
  YS02001926YS02001923    1.00   0.00  0.02  0.00  0.25  0.00  0.73  0.00  0.00  0.00
  YS02001929YS02001926    1.00   0.00  0.03  0.00  0.97  0.00  0.00  0.00  0.65  0.00
  YS02001920YS02001918    1.00   0.00  0.00  0.00  1.00  0.00  0.00  0.00  0.00  0.00
  YS02001629YS02163301    1.00   0.04  0.00  0.00  0.96  0.00  0.00  0.00  0.00  0.00
  YS02001619YS02001622    1.00   0.03  0.00  0.00  0.97  0.00  0.00  0.00  0.00  0.00
  YS02001622YS02001625    1.00   0.03  0.00  0.00  0.97  0.00  0.00  0.00  0.03  0.00
  YS02001625YS02001629    1.00   0.03  0.01  0.00  0.94  0.00  0.01  0.00  0.00  0.00
  YS02163301YS02001633    1.00   0.00  0.04  0.00  0.96  0.00  0.00  0.00  0.00  0.00
  YS02163601YS02164001    1.00   0.00  0.02  0.00  0.98  0.00  0.00  0.00  0.00  0.00
  YS02164001YS02001641    1.00   0.00  0.02  0.00  0.98  0.00  0.00  0.00  0.06  0.00
  YS02001641YS02001644    1.00   0.00  0.00  0.00  1.00  0.00  0.00  0.00  0.00  0.00
  YS02001647YS02001649    1.00   0.00  0.04  0.00  0.96  0.00  0.00  0.00  0.01  0.00
  YS02006553YS02006556    1.00   0.00  0.00  0.00  1.00  0.00  0.00  0.00  0.03  0.00
  YS02006556YS02006558    1.00   0.00  0.00  0.00  1.00  0.00  0.00  0.00  0.00  0.00
  YSB6556YSB1171          1.00   0.01  0.02  0.00  0.97  0.00  0.00  0.00  0.00  0.00
  YS02001907YS02006553    1.00   0.00  0.01  0.00  0.99  0.00  0.00  0.00  0.00  0.00
  YS02006558YS02006561    1.00   0.04  0.00  0.00  0.26  0.70  0.00  0.00  0.44  0.00
  YS02001633YS02163601    1.00   0.00  0.00  0.00  1.00  0.00  0.00  0.00  0.15  0.00
  YS02001644YS02001647    1.00   0.00  0.04  0.00  0.96  0.00  0.00  0.00  0.00  0.00
  YS02001745YS02001748    1.00   0.00  0.00  0.00  0.93  0.00  0.00  0.06  0.01  0.00
  YS02001748YS02001751    1.00   0.00  0.00  0.00  0.98  0.02  0.00  0.00  0.14  0.00
  YS02001751YS02001754    1.00   0.00  0.00  0.00  0.95  0.00  0.00  0.05  0.01  0.00
  YS02001754YS02001757    1.00   0.00  0.00  0.00  1.00  0.00  0.00  0.00  0.17  0.00
  YS02001882YS02001884    1.00   0.04  0.00  0.00  0.96  0.00  0.00  0.00  0.00  0.00
  YS02001884YS02001887    1.00   0.02  0.01  0.00  0.97  0.00  0.00  0.00  0.00  0.00
  YS02001890YS02001895    1.00   0.00  0.04  0.00  0.96  0.00  0.00  0.00  0.00  0.00
  YS02001895YS02001898    1.00   0.04  0.00  0.00  0.95  0.00  0.01  0.00  0.00  0.00
  YS02001898YS02001901    1.00   0.04  0.00  0.00  0.96  0.00  0.00  0.00  0.01  0.00
  YS02001901YS02001904    1.00   0.04  0.00  0.00  0.96  0.00  0.00  0.00  0.00  0.00
  YS02001904YS02001907    1.00   0.00  0.04  0.00  0.96  0.00  0.00  0.00  0.00  0.00
  YS02001887YS02001890    1.00   0.00  0.00  0.00  0.99  0.00  0.01  0.00  0.00  0.00
  YS02001652YS02001649    1.00   0.00  0.00  0.00  1.00  0.00  0.00  0.00  0.15  0.00
  YS02001655YS02001652    1.00   0.00  0.00  0.00  0.95  0.00  0.00  0.05  0.01  0.00
  YS02001658YS02001655    1.00   0.00  0.04  0.00  0.94  0.02  0.00  0.00  0.02  0.00
  YS02001661YS02001658    1.00   0.04  0.00  0.00  0.93  0.03  0.00  0.00  0.01  0.00
  YS02001664YS02001661    1.00   0.03  0.00  0.00  0.94  0.03  0.00  0.00  0.10  0.00
  YSB1154YSB6556          1.00   0.03  0.00  0.00  0.97  0.00  0.00  0.00  0.01  0.00
  YSB1174YSB1171          1.00   0.02  0.01  0.00  0.97  0.00  0.00  0.00  0.00  0.00
  YSB1171HS02004479       1.00   0.01  0.00  0.00  0.98  0.00  0.00  0.00  0.10  0.00
  HS02004881HS02006253    1.00   0.02  0.00  0.00  0.88  0.00  0.00  0.10  0.74  0.00
  YS02001793JiankangQianchi    1.00   0.00  0.00  0.00  0.65  0.35  0.00  0.00  0.36  0.00
  YS02001757CaochengTiaoxuchi    1.00   0.00  0.05  0.00  0.92  0.02  0.00  0.00  0.00  0.00
  WSF200WS02003060        1.00   0.00  0.01  0.00  0.99  0.00  0.00  0.00  0.28  0.00
  1                       1.00   0.00  0.00  0.00  0.00  1.00  0.00  0.00  0.59  0.00
  
  
  *************************
  Conduit Surcharge Summary
  *************************
  
  ----------------------------------------------------------------------------
                                                           Hours        Hours 
                         --------- Hours Full --------   Above Full   Capacity
  Conduit                Both Ends  Upstream  Dnstream   Normal Flow   Limited
  ----------------------------------------------------------------------------
  WS02006229WS02006228        4.67      4.78      4.67      5.65         4.67
  WS02006256WS02006235        6.44      6.44      6.97      4.70         0.01
  WS02006253WS02006251        3.11      3.11      3.32      0.01         0.01
  WS02006252WS02006251        2.45      2.45      3.63      2.60         0.01
  WS02006251WS02006249        3.13      3.16      3.33      1.82         1.36
  WS02006249WS02006248        3.15      3.15      3.33      4.89         0.01
  WS02006248WS02006247        3.29      3.29      3.72      0.01         0.01
  WS02006247WS02006245        3.66      3.79      3.66      5.29         3.41
  WS02006245WS02006243        3.69      3.72      3.80      0.68         0.51
  WS02006243WS02006242        3.87      3.87      4.69      0.01         0.01
  WS02006242WS02006240        4.38      4.38      4.82      2.96         0.01
  WS02006240WS02006239        4.39      4.42      4.43      1.78         0.91
  WS02006239WS02006238        4.56      4.67      4.60      1.89         1.17
  WS02006238WS02006235        4.53      4.53      4.79      0.01         0.03
  WS02006235WS02006234        4.31      4.31      4.49      6.24         0.02
  WS02006234WS02006232        4.38      4.38      4.82      1.35         1.31
  WS02006232WS02006231        3.52      3.52      4.82      1.53         0.01
[...]
  YS02001779YS02001774        6.12      6.12      6.19      0.01         0.01
  YS02001649YS02001757        6.19      6.19      6.23      0.01         0.01
  YS02001767YS02001765        6.18      6.18      6.18      0.01         0.01
  YS02006561YS02001783        1.69      1.69      1.93      0.01         0.01
  YS02001783YS02001784        1.91      1.93      1.91      2.12         1.89
  YS02001784YS02001785        1.85      1.91      1.85      2.90         1.85
  YS02001788YS02001790        1.80      1.80      2.41      0.01         0.01
  YS02001790YS02001791        2.40      2.41      2.49      1.82         1.80
  YS02001791YS02001793        2.49      2.49      2.82      0.01         0.01
  YS02001910YS02001907        1.93      1.93      2.37      0.01         0.01
  YS02001786YS02001788        1.80      1.85      1.80      2.51         1.80
  YS02001915YS02001910        1.79      1.79      1.93      0.01         0.01
  YS02001918YS02001915        1.65      1.65      1.79      0.01         0.01
  YS02001923YS02001920        1.49      1.49      1.68      0.01         0.01
  YS02001926YS02001923        0.01      0.01      0.01      0.01         0.01
  YS02001929YS02001926        0.01      0.01      0.01      0.01         0.01
  YS02001920YS02001918        1.65      1.65      1.68      0.01         0.01
  YS02001629YS02163301        6.16      6.16      6.17      0.01         0.01
  YS02001619YS02001622        6.09      6.09      6.10      0.01         0.02
  YS02001622YS02001625        6.10      6.10      6.15      0.01         0.01
  YS02001625YS02001629        6.08      6.08      6.15      0.01         0.01
  YS02163301YS02001633        6.17      6.17      6.18      0.01         0.01
  YS02163601YS02164001        6.17      6.17      6.20      0.01         0.01
  YS02164001YS02001641        6.17      6.17      6.18      0.01         0.03
  YS02001641YS02001644        6.18      6.18      6.18      2.37         2.51
  YS02001647YS02001649        6.15      6.15      6.19      0.01         0.01
  YS02006553YS02006556        2.10      2.10      2.43      0.01         0.01
  YS02006556YS02006558        2.21      2.21      2.52      0.01         0.01
  YSB6556YSB1171              0.01      0.01      0.30      0.01         0.01
  YS02001907YS02006553        2.92      2.92      3.13      0.01         0.01
  YS02006558YS02006561        1.78      2.07      1.78      2.78         1.78
  YS02001633YS02163601        6.17      6.17      6.20      0.01         0.01
  YS02001644YS02001647        6.15      6.15      6.18      0.01         0.01
  YS02001745YS02001748        0.01      0.01      6.04      0.01         0.01
  YS02001748YS02001751        6.05      6.05      6.09      0.01         0.01
  YS02001751YS02001754        6.09      6.09      6.14      0.01         0.01
  YS02001754YS02001757        6.15      6.15      6.23      0.01         0.01
  YS02001882YS02001884        1.80      1.80      1.82      0.01         0.01
  YS02001884YS02001887        1.85      1.85      1.87      0.01         0.01
  YS02001890YS02001895        1.78      1.78      1.94      0.01         0.01
  YS02001895YS02001898        1.77      1.77      1.78      0.01         0.01
  YS02001898YS02001901        1.79      1.79      1.85      0.01         0.01
  YS02001901YS02001904        1.83      1.83      1.85      0.01         0.01
  YS02001904YS02001907        1.83      1.83      2.46      0.01         0.01
  YS02001887YS02001890        1.89      1.89      1.91      0.52         0.01
  YS02001652YS02001649        6.16      6.16      6.19      0.01         0.01
  YS02001655YS02001652        6.10      6.10      6.15      0.01         0.01
  YS02001658YS02001655        6.05      6.05      6.10      0.01         0.01
  YS02001661YS02001658        0.11      0.11      6.05      0.01         0.01
  YS02001664YS02001661        0.01      0.01      1.86      0.01         0.01
  HS02004881HS02006253        0.01      0.01      1.94      0.01         0.01
  YS02001793JiankangQianchi        2.73      2.73      4.35      0.01         0.01
  YS02001757CaochengTiaoxuchi        5.75      5.75      6.23      0.01         0.01
  
  
  ***************
  Pumping Summary
  ***************
  
  ---------------------------------------------------------------------------------------------------------
                                                  Min       Avg       Max     Total     Power    % Time Off
                        Percent   Number of      Flow      Flow      Flow    Volume     Usage    Pump Curve
  Pump                 Utilized   Start-Ups       LPS       LPS       LPS  10^6 ltr     Kw-hr    Low   High
  ---------------------------------------------------------------------------------------------------------
  CC-Pump-1               72.34           1      0.00    181.92    200.00     3.660      3.82    0.0    0.0
  CC-Pump-2               46.80           6      0.00    109.08    200.00     1.740      2.35    0.0    0.0
  JK-Pump-1               63.82           4      0.00    241.77    300.00     4.295     58.76    0.0    0.0
  JK-Pump-2               57.44           3      0.00    459.50    683.00     7.745     95.11    0.0   97.9
  XR-Pump-1               97.87           2      0.00     94.54     95.00     2.565     20.93    0.0    0.0
  XR-Pump-2               97.87           2      0.00     94.54     95.00     2.565     20.93    0.0    0.0
  XR-Pump-3               97.87           2      0.00     94.54     95.00     2.565     20.93    0.0    0.0
  XR-Pump-4               97.87           2      0.00     94.54     95.00     2.565     20.93    0.0    0.0
  
  
  ***************************
  Link Pollutant Load Summary
  ***************************
  
  ------------------------------------------------------------------------------------------
                                 COD            SS            TN            TP         NH4-N
  Link                            kg            kg            kg            kg            kg
  ------------------------------------------------------------------------------------------
  WS02003066WSF200          1192.644      2293.769        28.150         2.325        14.444
  WS02006287WS02006284       438.083       854.535        12.586         1.181         6.763
  WS02006284WS02006280       438.581       855.336        12.634         1.187         6.793
  WS02006280WS02006229       438.587       855.389        12.632         1.187         6.791
  WS02006229WS02006228      1195.151      2297.074        27.803         2.266        14.201
  WS02006256WS02006235       228.950       434.104         4.763         0.356         2.367
  WS02006253WS02006251        84.836       169.939         1.872         0.142         0.930
  WS02006252WS02006251       529.749      1006.577        10.241         0.700         4.935
  WS02006251WS02006249       604.934      1158.634        11.919         0.828         5.772
  WS02006249WS02006248       544.701      1039.953        10.766         0.749         5.218
  WS02006248WS02006247       541.357      1033.029        10.701         0.744         5.187
  WS02006247WS02006245       541.224      1032.941        10.697         0.744         5.184
  WS02006245WS02006243       541.333      1033.443        10.693         0.743         5.182
  WS02006243WS02006242       541.836      1034.529        10.705         0.744         5.188
  WS02006242WS02006240       540.785      1032.473        10.687         0.743         5.180
  WS02006240WS02006239       539.930      1030.616        10.679         0.743         5.178
  WS02006239WS02006238       539.595      1029.560        10.692         0.746         5.187
  WS02006238WS02006235       538.912      1027.909        10.688         0.746         5.187
  WS02006235WS02006234       761.692      1451.040        15.282         1.088         7.465
  WS02006234WS02006232       760.706      1449.286        15.263         1.086         7.456
  WS02006232WS02006231       759.771      1447.609        15.244         1.085         7.446
  WS02006231WS02006230       759.061      1446.347        15.232         1.085         7.441
  WS02006230WS02006229       758.940      1446.134        15.242         1.086         7.448
  WS02006228WS02006109      1193.841      2294.740        27.771         2.264        14.185
  WS02006116WS02004401      1210.369      2325.898        28.629         2.366        14.696
  WS02006115WS02006116      1212.242      2329.248        28.690         2.372        14.729
  WS02006113WS02006111      1198.744      2302.040        28.489         2.357        14.643
  WS02006112WS02006115      1213.959      2332.343        28.746         2.377        14.760
  WS02006111WS02006112      1197.825      2300.285        28.464         2.355        14.630
  WS02006110WS02006113      1199.555      2303.432        28.514         2.360        14.657
  WS02006109WS02006110      1201.045      2306.048        28.560         2.364        14.681
  WS02004411WS02004412      1196.891      2301.526        28.276         2.337        14.511
  WS02004401WS02004402      1208.585      2322.701        28.567         2.360        14.661
  WS02004413WS02003067      1193.630      2295.592        28.173         2.327        14.455
  WS02004412WS02004413      1195.167      2298.398        28.226         2.332        14.484
  WS02004410WS02004411      1198.320      2304.113        28.316         2.340        14.533
  WS02004409WS02004410      1199.709      2306.627        28.358         2.344        14.556
  WS02004407WS02004409      1200.998      2308.940        28.396         2.347        14.576
  WS02004406WS02004407      1201.494      2309.795        28.410         2.348        14.583
  WS02004405WS02004406      1203.574      2313.505        28.484         2.356        14.625
  WS02004404WS02004405      1205.491      2316.972        28.528         2.359        14.647
  WS02004403WS02004404      1205.364      2316.951        28.454         2.349        14.598
  WS02004402WS02004403      1206.861      2319.638        28.507         2.354        14.628
  WS02004139WS02001211      1372.248      2324.951       103.078        12.436        63.118
  WS02004138WS02004139      1378.270      2335.118       103.524        12.490        63.391
  WS02003067WS02003066      1192.845      2294.150        28.156         2.326        14.446
  WS02001213WS02003059      1406.125      2378.027       106.611        12.882        65.339
  WS02001212WS02001213      1414.690      2392.354       107.280        12.963        65.750
  WS02001211WS02001212      1416.794      2395.789       107.464        12.986        65.864
  WS02003072WS02003073      2698.500      4829.858       144.748        16.462        86.041
  WS02003069WS02003072      2703.640      4838.318       145.177        16.515        86.307
  WS02003060WS02003069      2706.476      4843.286       145.332        16.532        86.399
  WS02003059WS02003060      1403.454      2373.430       106.436        12.861        65.233
  HS02004901HS02004770        19.400        38.444         0.369         0.028         0.174
  HS02004876HS02004881        64.841       131.153         1.382         0.100         0.674
  HS02004870HS02004876        49.300        99.617         1.094         0.080         0.537
  HS02004842HS02004848         9.278        18.136         0.191         0.013         0.089
  HS02004837HS02004842        13.925        25.524         0.662         0.072         0.384
  HS02004830HS02004837        81.308       145.732         4.858         0.568         2.931
  HS02004824HS02004830        82.101       147.036         4.931         0.577         2.976
  HS02004817HS02004824       118.564       221.805         5.667         0.624         3.333
  HS02004770HS02004777        73.685       147.827         1.507         0.104         0.700
  HS02004799HS02004480       235.081       460.637         5.679         0.484         2.882
  HS02004792HS02004799       214.141       417.331         5.330         0.464         2.722
  HS02004788HS02004792       116.315       227.341         3.333         0.303         1.755
  HS02004785HS02004788        75.101       150.091         1.653         0.123         0.793
  HS02004777HS02004785        74.430       149.016         1.592         0.115         0.755
  HS02004480HS02004478       294.420       579.922         6.703         0.559         3.370
  HS02004479HS02004480        62.980       125.163         1.335         0.113         0.681
  HS02004862HS02004870        37.531        74.848         0.862         0.066         0.425
  HS02004848HS02004852        15.822        31.381         0.320         0.022         0.149
  HS02004856HS02004862        25.850        52.197         0.514         0.035         0.242
  HS02004852HS02004856        15.835        31.404         0.320         0.022         0.149
  HS02004802HS02004478       144.594       276.108         5.948         0.629         3.432
  HS02004478WS02006287       438.231       854.748        12.602         1.183         6.773
  HS02004817HS02004807       117.205       219.660         5.527         0.607         3.246
  HS02004807HS02004802       144.760       276.361         5.980         0.634         3.453
  YS02001759YS02001757       459.568       867.341         9.014         0.629         4.394
  YS02001762YS02001759       241.598       454.269         4.950         0.348         2.433
  YS02001765YS02001762       242.648       457.286         4.986         0.351         2.453
  YS02001770YS02001767       245.752       466.287         4.880         0.331         2.373
  YS02001774YS02001770       430.288       846.767         8.262         0.555         3.996
  YS02001779YS02001774       429.178       844.596         8.324         0.566         4.042
  YS02001649YS02001757       399.562       747.622         7.864         0.546         3.777
  YS02001767YS02001765       244.469       461.821         5.031         0.354         2.477
  YS02006561YS02001783      1263.266      2384.911        26.075         1.927        12.908
  YS02001783YS02001784      1263.145      2384.714        26.070         1.926        12.905
  YS02001784YS02001785      1270.484      2396.469        26.783         2.016        13.351
  YS02001788YS02001790      1271.063      2397.391        26.855         2.025        13.397
  YS02001790YS02001791      1272.077      2399.012        26.955         2.037        13.460
  YS02001791YS02001793      1271.973      2398.824        26.950         2.037        13.457
  YS02001910YS02001907       566.048      1068.743        12.815         0.949         6.476
  YS02001786YS02001788      1270.656      2396.737        26.811         2.019        13.369
  YS02001915YS02001910       565.776      1068.210        12.768         0.942         6.445
  YS02001918YS02001915       279.388       506.645         6.950         0.600         3.657
  YS02001923YS02001920       254.127       463.492         4.925         0.354         2.407
  YS02001926YS02001923       251.099       458.040         4.807         0.342         2.340
  YS02001929YS02001926       248.353       453.245         4.682         0.329         2.267
  YS02001920YS02001918       275.257       497.988         6.858         0.594         3.612
  YS02001629YS02163301        89.658       159.276         1.893         0.124         0.888
  YS02001619YS02001622       259.380       485.231         5.243         0.348         2.461
  YS02001622YS02001625       258.404       483.695         5.219         0.346         2.450
  YS02001625YS02001629        86.716       153.441         1.848         0.120         0.865
  YS02163301YS02001633        94.499       168.770         1.970         0.131         0.926
  YS02163601YS02164001       529.031       976.506        10.165         0.735         4.886
  YS02164001YS02001641       528.944       976.348        10.152         0.733         4.878
  YS02001641YS02001644       529.935       978.003        10.164         0.734         4.883
  YS02001647YS02001649       552.646      1040.125        10.859         0.760         5.178
  YS02006553YS02006556       782.326      1457.995        16.644         1.261         8.340
  YS02006556YS02006558       782.469      1458.262        16.609         1.256         8.316
  YSB6556YSB1171              36.520        72.730         0.718         0.059         0.359
  YS02001907YS02006553       782.350      1458.056        16.673         1.265         8.359
  YS02006558YS02006561      1263.243      2384.861        26.074         1.927        12.908
  YS02001633YS02163601       529.629       977.451        10.142         0.730         4.868
  YS02001644YS02001647       561.443      1056.648        11.009         0.771         5.250
  YS02001745YS02001748       354.054       679.933         6.989         0.437         3.357
  YS02001748YS02001751       353.333       678.702         6.995         0.440         3.365
  YS02001751YS02001754       352.445       677.246         6.982         0.440         3.360
  YS02001754YS02001757       353.260       678.462         7.148         0.462         3.468
  YS02001882YS02001884         4.664         8.307         0.089         0.007         0.044
  YS02001884YS02001887         7.534        13.605         0.142         0.011         0.070
  YS02001890YS02001895       614.610      1175.094        11.358         0.858         5.542
  YS02001895YS02001898       614.483      1174.953        11.352         0.858         5.538
  YS02001898YS02001901       614.391      1174.741        11.351         0.857         5.538
  YS02001901YS02001904       614.071      1174.274        11.354         0.858         5.542
  YS02001904YS02001907       614.495      1174.900        11.416         0.866         5.581
  YS02001887YS02001890       669.125      1284.120        12.353         0.936         6.031
  YS02001652YS02001649       309.336       587.910         6.135         0.444         2.883
  YS02001655YS02001652       309.871       588.801         6.149         0.445         2.891
  YS02001658YS02001655       309.391       588.065         6.063         0.434         2.835
  YS02001661YS02001658       309.980       589.062         6.077         0.434         2.841
  YS02001664YS02001661       325.109       613.422         6.432         0.459         3.004
  YSB1154YSB6556              36.100        72.067         0.671         0.053         0.330
  YSB1174YSB1171              24.945        50.010         0.488         0.039         0.242
  YSB1171HS02004479           62.900       125.015         1.340         0.114         0.684
  HS02004881HS02006253        73.301       148.821         1.528         0.109         0.743
  YS02001793JiankangQianchi      1272.750      2400.122        26.977         2.040        13.472
  YS02001757CaochengTiaoxuchi       795.700      1490.029        15.753         1.077         7.614
  WSF200WS02003060          1192.143      2292.839        28.144         2.325        14.441
  1                         2704.119      4837.790       145.577        16.570        86.572
  CC-Pump-1                  362.177       688.971         6.986         0.477         3.366
  CC-Pump-2                  167.355       317.133         3.251         0.222         1.568
  JK-Pump-1                  344.200       657.664         7.024         0.521         3.476
  JK-Pump-2                  741.421      1420.463        14.938         1.097         7.361
  XR-Pump-1                  345.460       585.269        25.952         3.131        15.891
  XR-Pump-2                  345.460       585.269        25.952         3.131        15.891
  XR-Pump-3                  345.460       585.269        25.952         3.131        15.891
  XR-Pump-4                  345.460       585.269        25.952         3.131        15.891
  

  Analysis begun on:  Wed Jul 14 14:17:16 2021
  Analysis ended on:  Wed Jul 14 14:17:19 2021
  Total elapsed time: 00:00:03