
  EPA STORM WATER MANAGEMENT MODEL - VERSION 5.1 (Build 5.3.0.dev0)
  --------------------------------------------------------------

  WARNING 04: minimum elevation drop used for Conduit WS02004404WS02004405
  WARNING 03: negative offset ignored for Link YS02001904YS02001907
  
  *********************************************************
  NOTE: The summary statistics displayed in this report are
  based on results found at every computational time step,  
  not just on results from each reporting time step.
  *********************************************************
  
  ****************
  Analysis Options
  ****************
  Flow Units ............... LPS
  Process Models:
    Rainfall/Runoff ........ YES
    RDII ................... NO
    Snowmelt ............... NO
    Groundwater ............ NO
    Flow Routing ........... YES
    Ponding Allowed ........ NO
    Water Quality .......... YES
  Infiltration Method ...... HORTON
  Flow Routing Method ...... DYNWAVE
  Surcharge Method ......... EXTRAN
  Starting Date ............ 08/28/2015 08:00:00
  Ending Date .............. 08/28/2015 15:50:00
  Antecedent Dry Days ...... 8.0
  Report Time Step ......... 00:01:00
  Wet Time Step ............ 00:01:00
  Dry Time Step ............ 00:01:00
  Routing Time Step ........ 5.00 sec
  Variable Time Step ....... YES
  Maximum Trials ........... 8
  Number of Threads ........ 4
  Head Tolerance ........... 0.001500 m
  
  
  **************************        Volume         Depth
  Runoff Quantity Continuity     hectare-m            mm
  **************************     ---------       -------
  Total Precipitation ......         7.641        16.729
  Evaporation Loss .........         0.000         0.000
  Infiltration Loss ........         1.184         2.592
  Surface Runoff ...........         5.481        12.000
  Final Storage ............         0.977         2.139
  Continuity Error (%) .....        -0.016
  
  
  **************************           COD            SS            TN            TP         NH4-N
  Runoff Quality Continuity             kg            kg            kg            kg            kg
  **************************    ----------    ----------    ----------    ----------    ----------
  Initial Buildup ..........     41378.656     70582.865      1804.177       168.684      1032.807
  Surface Buildup ..........        30.344        63.217         2.449         0.220         1.402
  Wet Deposition ...........         0.000         0.000         0.000         0.000         0.000
  Sweeping Removal .........         0.000         0.000         0.000         0.000         0.000
  Infiltration Loss ........       127.934       247.015         2.452         0.174         1.174
  BMP Removal ..............         0.000         0.000         0.000         0.000         0.000
  Surface Runoff ...........      5553.100     10632.121       107.101         7.411        51.076
  Remaining Buildup ........     35725.917     59762.998      1697.031       161.316       981.940
  Continuity Error (%) .....         0.005         0.006         0.002         0.002         0.002
  
  
  **************************        Volume        Volume
  Flow Routing Continuity        hectare-m      10^6 ltr
  **************************     ---------     ---------
  Dry Weather Inflow .......         0.616         6.165
  Wet Weather Inflow .......         5.479        54.792
  Groundwater Inflow .......         0.000         0.000
  RDII Inflow ..............         0.000         0.000
  External Inflow ..........         0.102         1.024
  External Outflow .........         2.269        22.689
  Flooding Loss ............         3.495        34.954
  Evaporation Loss .........         0.000         0.000
  Exfiltration Loss ........         0.000         0.000
  Initial Stored Volume ....         0.076         0.761
  Final Stored Volume ......         0.624         6.235
  Continuity Error (%) .....        -1.813
  
  
  **************************           COD            SS            TN            TP         NH4-N
  Quality Routing Continuity            kg            kg            kg            kg            kg
  **************************    ----------    ----------    ----------    ----------    ----------
  Dry Weather Inflow .......      1541.201      2465.922       147.955        18.494        92.472
  Wet Weather Inflow .......      5552.147     10630.470       107.080         7.410        51.066
  Groundwater Inflow .......         0.000         0.000         0.000         0.000         0.000
  RDII Inflow ..............         0.000         0.000         0.000         0.000         0.000
  External Inflow ..........       183.418       293.469        17.608         2.201        11.005
  External Outflow .........      2735.622      4894.419       146.020        16.585        86.752
  Flooding Loss ............      3880.733      7355.266        98.953         8.641        51.946
  Exfiltration Loss ........         0.000         0.000         0.000         0.000         0.000
  Mass Reacted .............         0.000         0.000         0.000         0.000         0.000
  Initial Stored Mass ......         0.000         0.000         0.000         0.000         0.000
  Final Stored Mass ........       541.508       941.589        24.239         2.585        14.038
  Continuity Error (%) .....         1.634         1.483         1.259         1.045         1.170
  
  
  *************************
  Highest Continuity Errors
  *************************
  Node HS02004842 (10.96%)
  Node JK-storage (-9.16%)
  Node YS02001884 (7.54%)
  Node HS02004817 (2.13%)
  Node YSB1171 (1.97%)
  
  
  ***************************
  Time-Step Critical Elements
  ***************************
  Link WS02006252WS02006251 (69.84%)
  Link WS02006280WS02006229 (10.19%)
  Link WS02006238WS02006235 (4.06%)
  Link YS02001793JiankangQianchi (3.26%)
  Link WS02004404WS02004405 (2.93%)
  
  
  ********************************
  Highest Flow Instability Indexes
  ********************************
  Link YS02163601YS02164001 (33)
  Link YS02163301YS02001633 (33)
  Link YS02001619YS02001622 (32)
  Link YS02001629YS02163301 (32)
  Link WS02006113WS02006111 (32)
  
  
  *************************
  Routing Time Step Summary
  *************************
  Minimum Time Step           :     0.27 sec
  Average Time Step           :     1.06 sec
  Maximum Time Step           :     5.00 sec
  Percent in Steady State     :    -0.00
  Average Iterations per Step :     4.03
  Percent Not Converging      :    15.10
  
  
  ***************************
  Subcatchment Runoff Summary
  ***************************
  
  ------------------------------------------------------------------------------------------------------------------------------
                            Total      Total      Total      Total     Imperv       Perv      Total       Total     Peak  Runoff
                           Precip      Runon       Evap      Infil     Runoff     Runoff     Runoff      Runoff   Runoff   Coeff
  Subcatchment                 mm         mm         mm         mm         mm         mm         mm    10^6 ltr      LPS
  ------------------------------------------------------------------------------------------------------------------------------
  sub0                      16.73       0.00       0.00       0.71      15.51       0.47      15.98        0.01     3.87   0.955
  sub1                      16.73       0.00       0.00       1.18      14.80       0.66      15.46        0.10    26.74   0.924
  sub2                      16.73       0.00       0.00       4.79      10.46       1.40      11.85        0.11    25.81   0.708
  sub3                      16.73       0.00       0.00       5.01      10.42       1.18      11.60        0.26    56.97   0.693
  sub4                      16.73       0.00       0.00       1.28      14.64       0.56      15.20        0.32    66.74   0.909
  sub5                      16.73       0.00       0.00       0.73      15.46       0.44      15.91        0.18    46.91   0.951
  sub7                      16.73       0.00       0.00       0.93      15.16       0.58      15.74        0.05    14.85   0.941
  sub8                      16.73       0.00       0.00       0.94      15.15       0.57      15.72        0.10    27.42   0.940
  sub9                      16.73       0.00       0.00       0.94      15.15       0.57      15.72        0.08    20.52   0.940
  sub10                     16.73       0.00       0.00       0.83      15.30       0.50      15.81        0.17    46.04   0.945
  sub11                     16.73       0.00       0.00       0.83      15.32       0.51      15.83        0.18    50.62   0.947
  sub12                     16.73       0.00       0.00       1.34      14.51       0.83      15.34        0.13    39.22   0.917
  sub14                     16.73       0.00       0.00       0.94      15.15       0.57      15.72        0.15    40.40   0.939
  sub15                     16.73       0.00       0.00       3.54      11.65       1.48      13.13        0.23    57.86   0.785
  sub16                     16.73       0.00       0.00       3.72      11.17       1.80      12.97        0.14    37.34   0.776
  sub17                     16.73       0.00       0.00       3.62      11.33       1.73      13.07        0.11    30.57   0.781
  sub22                     16.73       0.00       0.00       5.27       9.49       1.92      11.42        0.72   183.11   0.683
  sub23                     16.73       0.00       0.00       4.37      10.50       1.82      12.32        0.59   153.57   0.736
  sub60                     16.73       0.00       0.00       1.74      12.78       0.27      13.05        3.96   446.24   0.780
  sub61                     16.73       0.00       0.00       2.46      12.72       0.38      13.11        4.04   542.53   0.784
  sub62                     16.73       0.00       0.00       1.06      13.91       0.27      14.19        4.36   558.01   0.848
  sub63                     16.73       0.00       0.00       4.39      11.06       0.46      11.52        3.49   496.40   0.689
  sub64                     16.73       0.00       0.00       2.23      12.28       0.28      12.56        3.82   424.95   0.751
  sub65                     16.73       0.00       0.00       1.91      12.51       0.27      12.77        3.93   431.32   0.764
  sub66                     16.73       0.00       0.00       4.54      10.46       0.31      10.78        3.31   388.44   0.644
  sub67                     16.73       0.00       0.00       1.01      14.45       0.32      14.78        4.56   675.76   0.883
  sub68                     16.73       0.00       0.00       1.95      13.33       0.39      13.71        4.22   589.75   0.820
  sub69                     16.73       0.00       0.00       2.00      13.62       0.51      14.12        3.30   542.07   0.844
  sub70                     16.73      14.42       0.00       8.47      19.01       2.12      21.13        4.84   534.50   0.678
  sub71                     16.73       0.00       0.00       1.08      13.65       0.25      13.90        3.28   394.68   0.831
  sub72                     16.73       0.00       0.00       1.02      11.50       0.15      11.65        2.37   206.66   0.697
  1                         16.73      20.58       0.00       1.37      22.38       7.20      29.58        6.95   612.18   0.793
  2                         16.73       0.00       0.00       3.02       4.04       3.18       7.22        2.89   331.58   0.431
  
  
  ****************************
  Subcatchment Washoff Summary
  ****************************
  
  ------------------------------------------------------------------------------------------
                                 COD            SS            TN            TP         NH4-N
  Subcatchment                    kg            kg            kg            kg            kg
  ------------------------------------------------------------------------------------------
  sub0                         3.641         7.161         0.064         0.005         0.031
  sub1                        15.670        31.767         0.296         0.021         0.143
  sub2                        10.304        20.454         0.214         0.015         0.099
  sub3                        25.293        49.815         0.517         0.036         0.240
  sub4                        36.168        74.260         0.714         0.044         0.344
  sub5                        35.763        71.366         0.649         0.050         0.316
  sub7                         7.894        16.212         0.150         0.010         0.073
  sub8                        11.755        24.726         0.234         0.014         0.113
  sub9                        10.113        20.966         0.196         0.013         0.095
  sub10                       29.347        59.341         0.545         0.040         0.265
  sub11                       28.395        58.052         0.536         0.037         0.260
  sub12                       24.463        49.072         0.450         0.034         0.218
  sub14                       21.697        44.543         0.414         0.028         0.200
  sub15                       29.696        58.821         0.572         0.042         0.270
  sub16                       19.246        38.050         0.367         0.028         0.174
  sub17                       17.687        34.653         0.330         0.026         0.156
  sub22                       95.915       186.896         1.820         0.139         0.857
  sub23                       54.382       109.539         1.141         0.076         0.527
  sub60                      353.947       679.509         6.988         0.437         3.357
  sub61                      439.695       840.113         8.188         0.570         3.952
  sub62                      449.790       873.119         8.744         0.564         4.209
  sub63                      328.186       618.356         6.505         0.463         3.037
  sub64                      450.924       835.563         8.299         0.611         3.976
  sub65                      460.537       856.688         8.527         0.617         4.090
  sub66                      259.427       485.147         5.248         0.348         2.463
  sub67                      667.181      1281.068        12.075         0.900         5.853
  sub68                      479.473       924.467         9.153         0.628         4.389
  sub69                      429.286       835.450         8.068         0.576         3.873
  sub70                      758.301      1478.311        15.194         1.074         7.173
  sub71                      296.268       580.620         6.027         0.356         2.890
  sub72                      247.759       452.374         4.612         0.320         2.223
  1                          576.917      1130.968        11.723         0.829         5.484
  2                           65.566       118.435         1.802         0.109         0.773
  ------------------------------------------------------------------------------------------
  System                    6740.687     12945.882       130.363         9.060        62.122
  
  
  ******************
  Node Depth Summary
  ******************
  
  ---------------------------------------------------------------------------------
                                 Average  Maximum  Maximum  Time of Max    Reported
                                   Depth    Depth      HGL   Occurrence   Max Depth
  Node                 Type       Meters   Meters   Meters  days hr:min      Meters
  ---------------------------------------------------------------------------------
  WS02001211           JUNCTION     0.78     0.85     5.69     0  02:01        0.85
  WS02001212           JUNCTION     0.50     0.58     5.64     0  02:02        0.58
  WS02001213           JUNCTION     0.74     0.86     5.62     0  02:01        0.86
  WS02003069           JUNCTION     0.55     0.72     5.31     0  02:01        0.72
  WS02003072           JUNCTION     0.61     0.77     5.14     0  02:01        0.77
  WS02003073           JUNCTION     0.37     0.48     4.55     0  02:02        0.48
  WS02003060           JUNCTION     0.49     0.64     5.57     0  02:00        0.64
  WS02003066           JUNCTION     0.27     0.39     5.94     0  01:55        0.39
  WS02003059           JUNCTION     0.79     0.91     5.60     0  02:01        0.91
  WS02003067           JUNCTION     0.65     0.83     6.15     0  01:54        0.83
  WS02004401           JUNCTION     0.80     1.31     7.31     0  01:52        1.29
  WS02004402           JUNCTION     0.83     1.30     7.26     0  01:52        1.27
  WS02004403           JUNCTION     0.84     1.27     7.20     0  01:52        1.24
  WS02004404           JUNCTION     0.91     1.31     7.16     0  01:52        1.28
  WS02004406           JUNCTION     0.90     1.21     7.04     0  01:52        1.18
  WS02004409           JUNCTION     0.61     0.98     6.75     0  01:55        0.98
  WS02004410           JUNCTION     0.62     0.97     6.69     0  01:55        0.96
  WS02004411           JUNCTION     0.63     0.94     6.62     0  01:55        0.94
  WS02004412           JUNCTION     0.64     0.92     6.56     0  01:55        0.92
  WS02004413           JUNCTION     0.80     1.03     6.50     0  01:54        1.03
  WS02004405           JUNCTION     0.90     1.28     7.13     0  01:52        1.25
  WS02006109           JUNCTION     0.90     1.76     8.38     0  01:53        1.75
  WS02006110           JUNCTION     0.87     1.55     8.13     0  01:52        1.54
  WS02006111           JUNCTION     0.30     1.01     7.72     0  01:52        0.97
  WS02006112           JUNCTION     0.99     1.66     7.54     0  01:52        1.64
  WS02006113           JUNCTION     0.42     1.06     7.96     0  01:52        1.02
  WS02006115           JUNCTION     0.70     1.32     7.46     0  01:52        1.29
  WS02006116           JUNCTION     0.78     1.35     7.39     0  01:52        1.33
  WS02006230           JUNCTION     0.95     1.99     8.73     0  01:53        1.97
  WS02006231           JUNCTION     0.69     1.62     8.75     0  01:53        1.60
  WS02006232           JUNCTION     0.84     1.71     8.75     0  01:53        1.68
  WS02006234           JUNCTION     0.79     1.60     8.75     0  01:53        1.59
  WS02006235           JUNCTION     0.84     1.60     8.77     0  01:53        1.58
  WS02006238           JUNCTION     0.87     1.62     8.76     0  01:53        1.60
  WS02006240           JUNCTION     0.78     1.44     8.74     0  01:53        1.43
  WS02006242           JUNCTION     0.84     1.46     8.73     0  01:53        1.45
  WS02006243           JUNCTION     0.72     1.30     8.72     0  01:53        1.28
  WS02006245           JUNCTION     0.69     1.22     8.71     0  01:53        1.22
  WS02006247           JUNCTION     0.70     1.20     8.70     0  01:53        1.20
  WS02006248           JUNCTION     0.64     1.10     8.69     0  01:50        1.10
  WS02006249           JUNCTION     0.66     1.09     8.69     0  01:50        1.09
  WS02006239           JUNCTION     0.83     1.54     8.75     0  01:53        1.52
  WS02006251           JUNCTION     0.64     1.30     8.97     0  03:57        1.23
  WS02006252           JUNCTION     0.41     0.84     9.08     0  03:57        0.76
  WS02006253           JUNCTION     0.66     1.38     9.03     0  03:57        1.28
  WS02006256           JUNCTION     1.82     2.35     9.28     0  00:00        2.35
  WS02004138           JUNCTION     0.19     0.20     7.45     0  00:00        0.19
  WS02004139           JUNCTION     0.73     0.79     5.70     0  02:02        0.79
  WS02004407           JUNCTION     0.27     0.40     6.72     0  01:53        0.40
  WS02006228           JUNCTION     0.93     1.94     8.59     0  01:53        1.93
  WS02006229           JUNCTION     0.92     2.02     8.72     0  01:53        2.00
  WS02006280           JUNCTION     0.07     0.33     8.60     0  01:52        0.31
  WS02006284           JUNCTION     0.38     0.66     9.06     0  01:54        0.66
  WS02006287           JUNCTION     0.11     0.40     9.36     0  01:54        0.40
  WSF200               JUNCTION     0.27     0.44     5.68     0  01:55        0.44
  HS02004901           JUNCTION     0.13     0.38    10.21     0  01:53        0.38
  HS02004881           JUNCTION     0.01     0.05     9.08     0  01:54        0.05
  HS02004876           JUNCTION     0.05     0.17     9.20     0  01:54        0.17
  HS02004870           JUNCTION     0.02     0.10     9.38     0  01:54        0.10
  HS02004862           JUNCTION     0.02     0.11     9.50     0  01:55        0.11
  HS02004856           JUNCTION     0.08     0.15     9.58     0  01:54        0.15
  HS02004852           JUNCTION     0.01     0.08     9.59     0  01:54        0.08
  HS02004848           JUNCTION     0.01     0.07     9.67     0  01:54        0.07
  HS02004842           JUNCTION     0.34     0.40     9.67     0  01:54        0.40
  HS02004837           JUNCTION     0.03     0.09     9.67     0  01:54        0.09
  HS02004830           JUNCTION     0.04     0.11     9.58     0  01:55        0.11
  HS02004824           JUNCTION     0.03     0.15     9.55     0  01:54        0.15
  HS02004817           JUNCTION     0.45     0.71     9.56     0  01:54        0.71
  HS02004807           JUNCTION     0.13     0.38     9.55     0  01:55        0.38
  HS02004802           JUNCTION     0.17     0.41     9.54     0  01:55        0.41
  HS02004799           JUNCTION     0.13     0.48     9.69     0  01:53        0.48
  HS02004792           JUNCTION     0.04     0.22     9.75     0  01:53        0.22
  HS02004788           JUNCTION     0.03     0.16    10.06     0  01:54        0.16
  HS02004785           JUNCTION     0.05     0.25    10.15     0  01:53        0.25
  HS02004777           JUNCTION     0.15     0.40    10.20     0  01:53        0.40
  HS02004770           JUNCTION     0.12     0.37    10.21     0  01:53        0.37
  HS02004480           JUNCTION     0.09     0.39     9.64     0  01:53        0.39
  HS02004479           JUNCTION     0.13     0.43     9.64     0  01:53        0.43
  HS02004478           JUNCTION     0.07     0.29     9.52     0  01:54        0.29
  YS02001745           JUNCTION     0.78     0.94     8.46     0  02:51        0.94
  YS02001748           JUNCTION     1.19     1.38     8.46     0  03:02        1.38
  YS02001751           JUNCTION     1.38     1.57     8.45     0  03:02        1.57
  YS02001754           JUNCTION     1.63     1.83     8.44     0  03:02        1.83
  YS02001762           JUNCTION     1.83     2.04     8.44     0  02:12        2.03
  YS02001765           JUNCTION     1.79     1.98     8.43     0  03:02        1.98
  YS02001767           JUNCTION     1.75     1.94     8.43     0  02:12        1.93
  YS02001770           JUNCTION     1.74     1.92     8.42     0  02:12        1.92
  YS02001774           JUNCTION     1.81     1.98     8.40     0  03:02        1.98
  YS02001779           JUNCTION     1.55     1.68     8.37     0  01:51        1.68
  YS02001882           JUNCTION     0.64     1.83     8.55     0  01:48        1.63
  YS02001884           JUNCTION     0.74     1.93     8.55     0  01:48        1.73
  YS02001759           JUNCTION     1.87     2.07     8.44     0  02:12        2.07
  YS02001887           JUNCTION     0.81     1.94     8.48     0  01:48        1.81
  YS02001890           JUNCTION     0.84     1.81     8.32     0  01:48        1.81
  YS02001898           JUNCTION     0.61     1.57     8.30     0  01:51        1.56
  YS02001901           JUNCTION     0.73     1.68     8.29     0  02:00        1.67
  YS02001904           JUNCTION     0.70     1.64     8.27     0  02:15        1.63
  YS02001907           JUNCTION     1.04     1.96     8.25     0  01:51        1.96
  YS02001910           JUNCTION     0.83     1.85     8.36     0  01:51        1.79
  YS02001915           JUNCTION     0.63     1.71     8.43     0  01:51        1.62
  YS02001918           JUNCTION     0.37     1.49     8.56     0  01:51        1.35
  YS02001619           JUNCTION     1.33     1.58     8.51     0  01:45        1.48
  YS02001629           JUNCTION     1.69     1.85     8.40     0  01:46        1.84
  YS02001641           JUNCTION     1.79     1.94     8.37     0  01:48        1.93
  YS02001644           JUNCTION     1.79     1.92     8.35     0  01:48        1.92
  YS02001652           JUNCTION     1.64     2.05     8.65     0  03:55        1.89
  YS02001655           JUNCTION     1.40     2.01     8.86     0  03:56        1.70
  YS02001920           JUNCTION     0.47     1.63     8.64     0  01:51        1.46
  YS02001923           JUNCTION     0.30     1.42     8.68     0  01:51        1.25
  YS02001926           JUNCTION     0.35     1.37     8.81     0  01:51        1.12
  YS02001929           JUNCTION     0.21     0.97     8.66     0  01:52        0.94
  YS02001658           JUNCTION     1.13     1.94     9.08     0  03:56        1.49
  YS02001661           JUNCTION     0.89     1.91     9.32     0  03:56        1.33
  YS02001664           JUNCTION     0.40     0.57     8.50     0  04:04        0.56
  YS02001622           JUNCTION     1.36     1.57     8.48     0  01:45        1.50
  YS02001633           JUNCTION     1.78     1.95     8.40     0  02:12        1.94
  YS02001649           JUNCTION     1.84     2.05     8.44     0  03:42        2.05
  YS02001757           JUNCTION     1.97     2.17     8.43     0  03:02        2.17
  YS02001895           JUNCTION     0.60     1.57     8.31     0  01:55        1.56
  YS02001625           JUNCTION     1.64     1.78     8.38     0  01:45        1.78
  YS02163301           JUNCTION     1.72     1.89     8.40     0  01:46        1.88
  YS02163601           JUNCTION     1.83     1.99     8.39     0  01:51        1.99
  YS02164001           JUNCTION     1.77     1.92     8.38     0  02:12        1.91
  YS02001647           JUNCTION     1.62     1.80     8.41     0  04:17        1.79
  YSB1154              JUNCTION     0.27     0.58     9.64     0  01:53        0.58
  YSB6556              JUNCTION     0.16     0.47     9.64     0  01:53        0.47
  YSB1174              JUNCTION     0.22     0.53     9.64     0  01:53        0.53
  YSB1171              JUNCTION     0.42     0.74     9.64     0  01:53        0.74
  YS02006553           JUNCTION     1.04     1.97     8.26     0  02:12        1.97
  YS02006561           JUNCTION     0.37     1.38     8.04     0  01:49        1.35
  YS02006556           JUNCTION     1.00     1.93     8.24     0  02:04        1.93
  YS02006558           JUNCTION     1.04     1.98     8.25     0  02:10        1.97
  YS02001783           JUNCTION     0.61     1.70     7.85     0  01:49        1.68
  YS02001784           JUNCTION     0.62     1.56     7.63     0  01:49        1.55
  YS02001786           JUNCTION     0.55     1.36     7.39     0  01:49        1.30
  YS02001788           JUNCTION     0.48     1.38     7.35     0  01:45        1.12
  YS02001790           JUNCTION     0.61     1.75     7.40     0  01:44        1.29
  YS02001791           JUNCTION     0.57     1.37     6.84     0  01:45        1.27
  YS02001793           JUNCTION     0.80     2.30     7.13     0  01:43        1.80
  WSC                  OUTFALL      0.37     0.48     1.15     0  02:02        0.48
  JK-storage           STORAGE      3.19     5.80     6.60     0  01:44        5.80
  CC-storage           STORAGE      1.22     1.43     8.43     0  02:52        1.43
  XR-storage           STORAGE      7.15     7.72     5.72     0  02:09        7.72
  
  
  *******************
  Node Inflow Summary
  *******************
  
  -------------------------------------------------------------------------------------------------
                                  Maximum  Maximum                  Lateral       Total        Flow
                                  Lateral    Total  Time of Max      Inflow      Inflow     Balance
                                   Inflow   Inflow   Occurrence      Volume      Volume       Error
  Node                 Type           LPS      LPS  days hr:min    10^6 ltr    10^6 ltr     Percent
  -------------------------------------------------------------------------------------------------
  WS02001211           JUNCTION      7.35   389.51     0  07:47       0.207        10.4       0.396
  WS02001212           JUNCTION      0.00   391.62     0  07:48           0        10.3       0.241
  WS02001213           JUNCTION      0.00   393.51     0  07:47           0        10.3       0.287
  WS02003069           JUNCTION      0.32  1345.20     0  02:00     0.00902        22.8       0.167
  WS02003072           JUNCTION      0.00  1345.19     0  02:01           0        22.7       0.198
  WS02003073           JUNCTION      1.82  1347.38     0  02:01      0.0514        22.7       0.233
  WS02003060           JUNCTION     16.53  1344.64     0  02:00       0.466        22.8       0.155
  WS02003066           JUNCTION      0.00   958.20     0  01:55           0        12.1       0.041
  WS02003059           JUNCTION      0.00   396.44     0  07:47           0        10.3       0.403
  WS02003067           JUNCTION      0.00   957.84     0  01:55           0        12.1       0.084
  WS02004401           JUNCTION      0.00   971.09     0  01:53           0        12.4       0.175
  WS02004402           JUNCTION      0.00   970.70     0  01:53           0        12.3       0.164
  WS02004403           JUNCTION      0.00   971.63     0  01:53           0        12.3       0.150
  WS02004404           JUNCTION      0.16   972.23     0  01:53     0.00457        12.3       0.112
  WS02004406           JUNCTION      0.00   973.25     0  01:53           0        12.3       0.275
  WS02004409           JUNCTION      0.00   971.35     0  01:53           0        12.2       0.149
  WS02004410           JUNCTION      0.00   959.05     0  01:54           0        12.2       0.167
  WS02004411           JUNCTION      0.00   956.21     0  01:55           0        12.2       0.171
  WS02004412           JUNCTION      0.00   957.75     0  01:55           0        12.2       0.183
  WS02004413           JUNCTION      0.00   957.90     0  01:55           0        12.2       0.269
  WS02004405           JUNCTION      0.04   973.81     0  01:53     0.00107        12.3       0.168
  WS02006109           JUNCTION      1.23   939.55     0  01:53      0.0347        12.4       0.164
  WS02006110           JUNCTION      0.00   939.27     0  01:53           0        12.4       0.147
  WS02006111           JUNCTION      0.00   938.90     0  01:53           0        12.3       0.029
  WS02006112           JUNCTION     30.57   969.33     0  01:53       0.112        12.4       0.246
  WS02006113           JUNCTION      0.00   939.32     0  01:53           0        12.3       0.080
  WS02006115           JUNCTION      0.00   969.71     0  01:53           0        12.4       0.166
  WS02006116           JUNCTION      0.00   970.68     0  01:53           0        12.4       0.143
  WS02006230           JUNCTION     10.28   533.52     0  07:02        0.29        9.29       0.152
  WS02006231           JUNCTION      0.00   522.96     0  07:07           0           9       0.081
  WS02006232           JUNCTION      0.00   523.05     0  07:02           0        9.01       0.174
  WS02006234           JUNCTION      0.00   524.19     0  07:02           0        9.01       0.078
  WS02006235           JUNCTION      0.00   524.22     0  07:19           0        9.09       0.100
  WS02006238           JUNCTION      0.00   402.71     0  04:39           0         5.6       0.126
  WS02006240           JUNCTION      0.00   402.57     0  04:39           0        5.57       0.194
  WS02006242           JUNCTION      0.00   402.62     0  04:39           0        5.56       0.243
  WS02006243           JUNCTION      0.00   402.54     0  04:38           0        5.55       0.129
  WS02006245           JUNCTION      0.00   402.97     0  04:37           0        5.54       0.159
  WS02006247           JUNCTION      0.00   402.65     0  04:40           0        5.54       0.123
  WS02006248           JUNCTION      0.00   403.17     0  04:37           0        5.56       0.084
  WS02006249           JUNCTION      0.00   465.34     0  02:30           0        6.19       0.146
  WS02006239           JUNCTION      0.00   402.57     0  04:38           0        5.59       0.166
  WS02006251           JUNCTION      0.08   464.30     0  02:30     0.00217        6.23       0.134
  WS02006252           JUNCTION      0.00   400.00     0  03:10           0        5.58       0.011
  WS02006253           JUNCTION      3.87   156.77     0  01:54      0.0129       0.649       0.502
  WS02006256           JUNCTION      0.00   983.00     0  02:00           0        11.8      -0.003
  WS02004138           JUNCTION      0.00   380.00     0  00:00           0        10.2       0.064
  WS02004139           JUNCTION      0.32   395.85     0  00:00     0.00905        10.2       0.452
  WS02004407           JUNCTION      0.00   973.72     0  01:53           0        12.2       0.064
  WS02006228           JUNCTION      0.00   938.16     0  01:53           0        12.4       0.121
  WS02006229           JUNCTION      0.00   994.76     0  01:52           0        12.4       0.112
  WS02006280           JUNCTION      0.00   736.09     0  01:54           0        3.11       0.014
  WS02006284           JUNCTION      0.10   735.83     0  01:54      0.0027        3.11       0.019
  WS02006287           JUNCTION      0.00   735.65     0  01:54           0        3.11       0.024
  WSF200               JUNCTION      0.00   958.27     0  01:56           0        12.1       0.040
  HS02004901           JUNCTION     37.34    37.34     0  01:51       0.136       0.136       1.312
  HS02004881           JUNCTION     14.85   153.29     0  01:54       0.053       0.601       0.109
  HS02004876           JUNCTION     26.74   139.06     0  01:54       0.103       0.549       0.099
  HS02004870           JUNCTION     27.42   112.65     0  01:54         0.1       0.446       0.025
  HS02004862           JUNCTION     26.01    86.18     0  01:54       0.116       0.346       0.050
  HS02004856           JUNCTION     20.52    60.23     0  01:54      0.0756       0.231       0.629
  HS02004852           JUNCTION      0.00    40.37     0  01:54           0       0.155       0.036
  HS02004848           JUNCTION     56.97    56.97     0  01:56       0.261       0.261       0.019
  HS02004842           JUNCTION      0.00    18.18     0  02:06           0       0.119      12.306
  HS02004837           JUNCTION     52.39    67.87     0  01:54       0.353       0.459       0.177
  HS02004830           JUNCTION      0.15    67.98     0  01:54     0.00423       0.449       0.275
  HS02004824           JUNCTION     66.79   134.68     0  01:56       0.318       0.767       0.071
  HS02004817           JUNCTION      0.60   136.87     0  01:57      0.0169       0.783       2.176
  HS02004807           JUNCTION     50.62   184.26     0  01:55       0.184       0.952       0.461
  HS02004802           JUNCTION      0.00   183.95     0  01:56           0        0.95       0.417
  HS02004799           JUNCTION     40.40   470.75     0  01:53        0.15        1.87       0.160
  HS02004792           JUNCTION    183.39   430.98     0  01:53       0.729        1.72       0.024
  HS02004788           JUNCTION     59.53   248.80     0  01:53       0.273       0.991       0.039
  HS02004785           JUNCTION      0.15   189.56     0  01:53     0.00423        0.72       0.070
  HS02004777           JUNCTION      0.03   189.71     0  01:52    0.000846        0.72       0.728
  HS02004770           JUNCTION    153.57   190.37     0  01:52       0.587       0.722       0.429
  HS02004480           JUNCTION      0.00   554.34     0  01:53           0        2.18       0.043
  HS02004479           JUNCTION      0.00    83.75     0  01:53           0       0.323       0.229
  HS02004478           JUNCTION      0.00   735.60     0  01:54           0        3.11       0.010
  YS02001745           JUNCTION    446.25   446.25     0  02:16        3.95        3.95       0.246
  YS02001748           JUNCTION      0.04   451.35     0  02:16     0.00127        3.95       0.583
  YS02001751           JUNCTION      0.01   451.28     0  02:16     0.00031        3.92       0.606
  YS02001754           JUNCTION      0.26   452.10     0  02:16     0.00733        3.91       0.632
  YS02001762           JUNCTION      0.00   434.49     0  01:55           0         2.4       0.884
  YS02001765           JUNCTION      0.00   435.58     0  01:55           0         2.4       1.013
  YS02001767           JUNCTION      0.54   434.92     0  01:55      0.0151        2.42       1.486
  YS02001770           JUNCTION    558.16   687.11     0  02:52        4.36         5.2       0.598
  YS02001774           JUNCTION      0.00   687.11     0  02:52           0        3.59       0.688
  YS02001779           JUNCTION      0.01   687.11     0  02:52    0.000141        3.56       0.437
  YS02001882           JUNCTION      0.00    63.81     0  01:48           0      0.0431       5.051
  YS02001884           JUNCTION      0.00    72.35     0  01:47           0      0.0834       8.150
  YS02001759           JUNCTION    542.57   876.49     0  01:56        4.04        5.58       0.409
  YS02001887           JUNCTION    676.21   677.61     0  02:12        4.57        4.61       0.186
  YS02001890           JUNCTION      0.00   677.46     0  02:13           0        4.56       0.203
  YS02001898           JUNCTION      0.00   525.06     0  01:51           0        4.27       0.073
  YS02001901           JUNCTION      0.00   525.50     0  01:51           0        4.27       0.158
  YS02001904           JUNCTION      0.00   526.86     0  01:51           0        4.27       0.144
  YS02001907           JUNCTION      0.00  1165.84     0  01:52           0        9.99       0.246
  YS02001910           JUNCTION      0.00   650.94     0  01:52           0        5.74       0.212
  YS02001915           JUNCTION    394.70   651.23     0  01:52        3.28        5.79       0.102
  YS02001918           JUNCTION      0.00   368.45     0  01:52           0        2.54       0.061
  YS02001619           JUNCTION    388.44   388.44     0  02:16         3.3         3.3       0.367
  YS02001629           JUNCTION      0.00   217.69     0  01:48           0        1.43       2.032
  YS02001641           JUNCTION      0.00   455.66     0  01:48           0        5.09       0.413
  YS02001644           JUNCTION    424.99  1517.51     0  02:52        3.82        13.3       0.197
  YS02001652           JUNCTION      0.00   517.87     0  02:11           0        3.45       0.670
  YS02001655           JUNCTION      0.15   518.31     0  02:11     0.00434        3.47       0.733
  YS02001920           JUNCTION      2.87   367.61     0  01:52      0.0809        2.52       0.117
  YS02001923           JUNCTION      0.04   300.88     0  01:53     0.00106        2.42       0.050
  YS02001926           JUNCTION      0.05   348.76     0  01:51     0.00147        2.39       0.130
  YS02001929           JUNCTION    206.66   206.66     0  03:01        2.37        2.38       0.024
  YS02001658           JUNCTION      0.00   518.33     0  02:11           0        3.49       0.689
  YS02001661           JUNCTION      0.00   750.29     0  01:56           0        3.97      -0.224
  YS02001664           JUNCTION    496.40   496.40     0  02:16        3.49        3.97       0.119
  YS02001622           JUNCTION      0.00   389.13     0  02:15           0        3.29       0.972
  YS02001633           JUNCTION    431.52   455.17     0  01:48        3.93        5.24       0.612
  YS02001649           JUNCTION      0.00  1005.35     0  01:49           0        6.92       0.538
  YS02001757           JUNCTION      0.00  2144.50     0  01:55           0        11.1       0.828
  YS02001895           JUNCTION      0.00   523.89     0  01:51           0        4.27       0.123
  YS02001625           JUNCTION      0.00   435.81     0  02:16           0        3.34       1.183
  YS02163301           JUNCTION      0.00   226.39     0  01:45           0        1.42       1.706
  YS02163601           JUNCTION      0.11   455.34     0  01:48      0.0031        5.11       0.588
  YS02164001           JUNCTION      0.00   455.15     0  01:48           0        5.09       0.390
  YS02001647           JUNCTION      0.00   758.36     0  02:52           0        5.95       0.474
  YSB1154              JUNCTION     46.91    46.91     0  01:52        0.18       0.181       0.806
  YSB6556              JUNCTION      0.00    46.64     0  01:52           0       0.182       0.696
  YSB1174              JUNCTION     39.22    39.22     0  01:50       0.134       0.134       0.963
  YSB1171              JUNCTION      0.00    84.02     0  01:52           0       0.322       2.011
  YS02006553           JUNCTION      0.00   718.58     0  03:35           0        7.29       0.214
  YS02006561           JUNCTION      0.00   983.20     0  02:11           0        11.5       0.006
  YS02006556           JUNCTION      0.00   718.68     0  03:35           0        7.29       0.154
  YS02006558           JUNCTION    590.63   984.29     0  02:11        4.24        11.5       0.044
  YS02001783           JUNCTION      0.00   982.96     0  02:09           0        11.5       0.019
  YS02001784           JUNCTION      1.06   985.00     0  02:10      0.0299        11.5       0.031
  YS02001786           JUNCTION      0.06   983.56     0  02:15     0.00159        11.5       0.031
  YS02001788           JUNCTION      0.07   983.50     0  02:11       0.002        11.5       0.018
  YS02001790           JUNCTION      0.15   983.92     0  02:14     0.00437        11.5       0.007
  YS02001791           JUNCTION      0.00   983.80     0  02:11           0        11.5       0.010
  YS02001793           JUNCTION      0.00   985.59     0  02:09           0        11.5      -0.038
  WSC                  OUTFALL       0.00  1347.96     0  02:02           0        22.7       0.000
  JK-storage           STORAGE       0.00   984.77     0  02:12           0        11.6      -8.391
  CC-storage           STORAGE       0.00  2147.02     0  01:55           0        8.97       0.680
  XR-storage           STORAGE    1054.62  1054.62     0  03:01        15.5        16.1       0.001
  
  
  **********************
  Node Surcharge Summary
  **********************
  
  Surcharging occurs when water rises above the top of the highest conduit.
  ---------------------------------------------------------------------
                                               Max. Height   Min. Depth
                                   Hours       Above Crown    Below Rim
  Node                 Type      Surcharged         Meters       Meters
  ---------------------------------------------------------------------
  WS02004401           JUNCTION        1.35          0.313        1.347
  WS02004402           JUNCTION        1.40          0.297        1.443
  WS02004403           JUNCTION        1.41          0.269        1.761
  WS02004404           JUNCTION        1.66          0.311        2.469
  WS02004406           JUNCTION        1.58          0.206        2.244
  WS02004413           JUNCTION        0.46          0.032        2.168
  WS02004405           JUNCTION        1.63          0.279        2.521
  WS02006109           JUNCTION        5.03          0.939        0.881
  WS02006110           JUNCTION        2.91          0.637        1.213
  WS02006111           JUNCTION        0.34          0.202        1.668
  WS02006112           JUNCTION        3.18          0.662        1.018
  WS02006113           JUNCTION        0.38          0.264        1.666
  WS02006115           JUNCTION        0.76          0.308        1.942
  WS02006116           JUNCTION        0.82          0.292        1.998
  WS02006230           JUNCTION        2.75          0.909        0.661
  WS02006231           JUNCTION        3.06          0.914        0.616
  WS02006232           JUNCTION        4.99          1.014        0.466
  WS02006234           JUNCTION        4.34          0.876        0.364
  WS02006235           JUNCTION        4.71          0.895        0.395
  WS02006238           JUNCTION        4.80          0.895        0.535
  WS02006240           JUNCTION        4.12          0.733        0.657
  WS02006242           JUNCTION        4.37          0.729        0.091
  WS02006243           JUNCTION        3.58          0.590        0.180
  WS02006245           JUNCTION        3.45          0.515        0.335
  WS02006247           JUNCTION        3.47          0.494        0.266
  WS02006248           JUNCTION        3.24          0.380        0.000
  WS02006249           JUNCTION        3.31          0.390        0.000
  WS02006239           JUNCTION        4.44          0.799        0.491
  WS02006251           JUNCTION        1.95          0.268        0.912
  WS02006252           JUNCTION        3.91          0.436        0.664
  WS02006253           JUNCTION        2.18          0.344        2.136
  WS02006256           JUNCTION        6.97          2.050        0.000
  WS02006228           JUNCTION        4.99          1.111        1.089
  HS02004817           JUNCTION        0.14          0.011        1.729
  YS02001748           JUNCTION        6.04          0.300        0.890
  YS02001751           JUNCTION        6.09          0.570        0.630
  YS02001754           JUNCTION        6.14          0.781        0.369
  YS02001762           JUNCTION        6.19          1.039        0.111
  YS02001765           JUNCTION        6.18          0.982        0.118
  YS02001767           JUNCTION        6.18          0.938        0.092
  YS02001770           JUNCTION        6.18          0.895        0.025
  YS02001774           JUNCTION        6.19          0.981        0.069
  YS02001779           JUNCTION        6.12          0.680        0.000
  YS02001882           JUNCTION        1.80          0.830        0.000
  YS02001884           JUNCTION        1.82          0.870        0.000
  YS02001759           JUNCTION        6.20          1.073        0.137
  YS02001887           JUNCTION        1.87          0.889        0.061
  YS02001890           JUNCTION        1.89          0.760        0.000
  YS02001898           JUNCTION        1.78          0.537        0.203
  YS02001901           JUNCTION        1.85          0.678        0.192
  YS02001904           JUNCTION        1.83          0.643        0.207
  YS02001907           JUNCTION        2.40          0.950        0.000
  YS02001910           JUNCTION        1.93          0.852        0.248
  YS02001915           JUNCTION        1.79          0.708        0.292
  YS02001918           JUNCTION        1.65          0.491        0.319
  YS02001619           JUNCTION        6.09          0.577        0.033
  YS02001629           JUNCTION        6.08          0.470        0.000
  YS02001641           JUNCTION        6.18          0.935        0.165
  YS02001644           JUNCTION        6.18          0.920        0.000
  YS02001652           JUNCTION        6.15          1.019        0.111
  YS02001655           JUNCTION        6.10          1.013        0.187
  YS02001920           JUNCTION        1.68          0.630        0.510
  YS02001923           JUNCTION        0.01          0.213        0.607
  YS02001926           JUNCTION        0.01          0.365        0.535
  YS02001658           JUNCTION        6.05          0.942        0.358
  YS02001661           JUNCTION        0.14          0.841        0.549
  YS02001622           JUNCTION        6.10          0.572        0.048
  YS02001633           JUNCTION        6.17          0.928        0.132
  YS02001649           JUNCTION        6.19          1.050        0.000
  YS02001757           JUNCTION        6.23          1.171        0.039
  YS02001895           JUNCTION        1.78          0.567        0.183
  YS02001625           JUNCTION        6.15          0.780        0.000
  YS02163301           JUNCTION        6.17          0.886        0.144
  YS02163601           JUNCTION        6.20          0.990        0.090
  YS02164001           JUNCTION        6.17          0.920        0.180
  YS02001647           JUNCTION        6.15          0.799        0.101
  YS02006553           JUNCTION        2.47          0.971        0.219
  YS02006561           JUNCTION        1.69          0.582        0.568
  YS02006556           JUNCTION        2.10          0.893        0.457
  YS02006558           JUNCTION        2.07          0.878        0.522
  YS02001783           JUNCTION        1.93          0.904        0.696
  YS02001784           JUNCTION        1.91          0.762        0.728
  YS02001786           JUNCTION        1.85          0.565        0.865
  YS02001788           JUNCTION        1.80          0.577        0.903
  YS02001790           JUNCTION        2.69          0.954        0.203
  YS02001791           JUNCTION        2.78          0.570        1.350
  YS02001793           JUNCTION        3.04          1.302        1.298
  
  
  *********************
  Node Flooding Summary
  *********************
  
  Flooding refers to all water that overflows a node, whether it ponds or not.
  --------------------------------------------------------------------------
                                                             Total   Maximum
                                 Maximum   Time of Max       Flood    Ponded
                        Hours       Rate    Occurrence      Volume     Depth
  Node                 Flooded       LPS   days hr:min    10^6 ltr    Meters
  --------------------------------------------------------------------------
  WS02006248              0.22     65.57      0  01:54       0.022     0.000
  WS02006249              2.09    220.40      0  02:30       0.626     0.000
  WS02006256              4.57    828.78      0  02:00       8.239     0.000
  YS02001779              3.29    687.11      0  02:52       3.544     0.000
  YS02001882              0.01      8.05      0  01:48       0.000     0.000
  YS02001884              0.01      6.97      0  01:48       0.000     0.000
  YS02001890              0.81    161.41      0  02:12       0.274     0.000
  YS02001907              1.53    715.07      0  02:16       2.680     0.000
  YS02001629              0.01     28.48      0  01:46       0.000     0.000
  YS02001644              5.10   1517.51      0  02:52      11.710     0.000
  YS02001649              0.02     24.04      0  03:49       0.001     0.000
  YS02001625              2.16    435.58      0  02:16       1.967     0.000
  JK-storage              0.84    575.22      0  01:49       0.853     0.000
  XR-storage              4.64    674.61      0  03:01       5.040     0.000
  
  
  **********************
  Storage Volume Summary
  **********************
  
  --------------------------------------------------------------------------------------------------
                         Average     Avg  Evap Exfil       Maximum     Max    Time of Max    Maximum
                          Volume    Pcnt  Pcnt  Pcnt        Volume    Pcnt     Occurrence    Outflow
  Storage Unit           1000 m3    Full  Loss  Loss       1000 m3    Full    days hr:min        LPS
  --------------------------------------------------------------------------------------------------
  JK-storage               0.160      55     0     0         0.291     100       0  01:44     983.00
  CC-storage               3.397      22     0     0         3.972      25       0  02:52     400.00
  XR-storage               0.859      93     0     0         0.926     100       0  02:09     380.00
  
  
  ***********************
  Outfall Loading Summary
  ***********************
  
  ---------------------------------------------------------------------------------------------------------------------------------
                         Flow       Avg       Max       Total         Total         Total         Total         Total         Total
                         Freq      Flow      Flow      Volume           COD            SS            TN            TP         NH4-N
  Outfall Node           Pcnt       LPS       LPS    10^6 ltr            kg            kg            kg            kg            kg
  ---------------------------------------------------------------------------------------------------------------------------------
  WSC                   99.99    869.14   1347.96      22.689      2735.787      4894.711       146.030        16.587        86.758
  ---------------------------------------------------------------------------------------------------------------------------------
  System                99.99    869.14   1347.96      22.689      2735.787      4894.711       146.030        16.587        86.758
  
  
  ********************
  Link Flow Summary
  ********************
  
  -----------------------------------------------------------------------------
                                 Maximum  Time of Max   Maximum    Max/    Max/
                                  |Flow|   Occurrence   |Veloc|    Full    Full
  Link                 Type          LPS  days hr:min     m/sec    Flow   Depth
  -----------------------------------------------------------------------------
  WS02003066WSF200     CONDUIT    958.27     0  01:56      3.01    0.16    0.33
  WS02006287WS02006284 CONDUIT    735.74     0  01:54      2.45    0.34    0.41
  WS02006284WS02006280 CONDUIT    736.09     0  01:54      2.68    0.31    0.38
  WS02006280WS02006229 CONDUIT    740.92     0  01:52      4.20    0.16    0.58
  WS02006229WS02006228 CONDUIT    938.16     0  01:53      1.87    3.11    1.00
  WS02006256WS02006235 CONDUIT    288.92     0  00:00      4.23    3.06    1.00
  WS02006253WS02006251 CONDUIT    169.88     0  01:51      0.74    0.51    1.00
  WS02006252WS02006251 CONDUIT    401.14     0  04:36      3.19    1.47    1.00
  WS02006251WS02006249 CONDUIT    465.34     0  02:30      1.21    1.34    1.00
  WS02006249WS02006248 CONDUIT    403.17     0  04:37      1.13    2.21    1.00
  WS02006248WS02006247 CONDUIT    402.65     0  04:40      1.10    0.88    1.00
  WS02006247WS02006245 CONDUIT    402.97     0  04:37      1.07    3.20    1.00
  WS02006245WS02006243 CONDUIT    402.54     0  04:38      1.08    1.19    1.00
  WS02006243WS02006242 CONDUIT    402.62     0  04:39      1.05    0.86    1.00
  WS02006242WS02006240 CONDUIT    402.57     0  04:39      1.05    1.60    1.00
  WS02006240WS02006239 CONDUIT    402.57     0  04:38      1.05    1.27    1.00
  WS02006239WS02006238 CONDUIT    402.71     0  04:39      1.05    1.29    1.00
  WS02006238WS02006235 CONDUIT    404.06     0  04:39      1.45    0.90    1.00
  WS02006235WS02006234 CONDUIT    524.19     0  07:02      1.36    5.53    1.00
  WS02006234WS02006232 CONDUIT    523.05     0  07:02      1.39    1.06    1.00
  WS02006232WS02006231 CONDUIT    522.96     0  07:07      1.36    1.10    1.00
  WS02006231WS02006230 CONDUIT    523.24     0  07:02      1.36    7.94    1.00
  WS02006230WS02006229 CONDUIT    533.18     0  07:02      1.39   11.87    1.00
  WS02006228WS02006109 CONDUIT    938.32     0  01:53      1.87    4.10    1.00
  WS02006116WS02004401 CONDUIT    971.09     0  01:53      1.24    1.34    1.00
  WS02006115WS02006116 CONDUIT    970.68     0  01:53      1.24    1.25    1.00
  WS02006113WS02006111 CONDUIT    938.90     0  01:53      2.64    1.13    1.00
  WS02006112WS02006115 CONDUIT    969.71     0  01:53      1.23    0.57    1.00
  WS02006111WS02006112 CONDUIT    939.31     0  01:53      1.87    0.45    1.00
  WS02006110WS02006113 CONDUIT    939.32     0  01:53      1.87    0.85    1.00
  WS02006109WS02006110 CONDUIT    939.27     0  01:53      1.87    1.81    1.00
  WS02004411WS02004412 CONDUIT    957.75     0  01:55      1.26    1.36    0.93
  WS02004401WS02004402 CONDUIT    970.70     0  01:53      1.24    1.17    1.00
  WS02004413WS02003067 CONDUIT    957.84     0  01:55      1.58    0.41    0.72
  WS02004412WS02004413 CONDUIT    957.90     0  01:55      1.24    0.64    0.96
  WS02004410WS02004411 CONDUIT    956.21     0  01:55      1.24    1.31    0.95
  WS02004409WS02004410 CONDUIT    959.05     0  01:54      1.24    1.24    0.97
  WS02004407WS02004409 CONDUIT    971.35     0  01:53      1.74    0.34    0.69
  WS02004406WS02004407 CONDUIT    973.72     0  01:53      1.65    0.44    0.70
  WS02004405WS02004406 CONDUIT    973.25     0  01:53      1.24    1.92    1.00
  WS02004404WS02004405 CONDUIT    973.78     0  01:53      1.24    9.54    1.00
  WS02004403WS02004404 CONDUIT    972.07     0  01:53      1.24    0.70    1.00
  WS02004402WS02004403 CONDUIT    971.63     0  01:53      1.24    1.40    1.00
  WS02004139WS02001211 CONDUIT    382.16     0  07:47      0.90    0.48    0.64
  WS02004138WS02004139 CONDUIT    395.52     0  00:00      3.64    0.08    0.47
  WS02003067WS02003066 CONDUIT    958.20     0  01:55      1.67    0.31    0.51
  WS02001213WS02003059 CONDUIT    396.44     0  07:47      0.89    0.65    0.88
  WS02001212WS02001213 CONDUIT    393.51     0  07:47      1.32    0.61    0.56
  WS02001211WS02001212 CONDUIT    391.62     0  07:48      0.78    0.30    0.72
  WS02003072WS02003073 CONDUIT   1345.56     0  02:01      1.97    2.91    0.58
  WS02003069WS02003072 CONDUIT   1345.19     0  02:01      1.82    0.65    0.62
  WS02003060WS02003069 CONDUIT   1344.88     0  02:00      2.03    0.53    0.57
  WS02003059WS02003060 CONDUIT    400.43     0  07:46      0.95    0.26    0.78
  HS02004901HS02004770 CONDUIT     36.84     0  01:52      0.10    0.14    0.54
  HS02004876HS02004881 CONDUIT    139.08     0  01:54      1.26    1.48    0.16
  HS02004870HS02004876 CONDUIT    112.62     0  01:54      0.85    0.07    0.19
  HS02004842HS02004848 CONDUIT     18.18     0  02:06      0.08    0.01    0.34
  HS02004837HS02004842 CONDUIT     18.64     0  02:07      0.42    0.01    0.35
  HS02004830HS02004837 CONDUIT     67.83     0  01:54      0.68    0.07    0.14
  HS02004824HS02004830 CONDUIT     68.03     0  01:56      0.62    0.09    0.18
  HS02004817HS02004824 CONDUIT    136.27     0  01:57      0.32    0.06    0.60
  HS02004770HS02004777 CONDUIT    189.68     0  01:52      0.49    0.35    0.55
  HS02004799HS02004480 CONDUIT    470.64     0  01:53      1.09    0.59    0.62
  HS02004792HS02004799 CONDUIT    430.88     0  01:53      1.22    0.26    0.50
  HS02004788HS02004792 CONDUIT    248.73     0  01:54      1.29    0.16    0.28
  HS02004785HS02004788 CONDUIT    189.53     0  01:53      0.92    1.43    0.30
  HS02004777HS02004785 CONDUIT    189.41     0  01:53      0.59    0.23    0.46
  HS02004480HS02004478 CONDUIT    554.37     0  01:53      1.59    2.33    0.50
  HS02004479HS02004480 CONDUIT     83.71     0  01:53      0.37    0.08    0.59
  HS02004862HS02004870 CONDUIT     86.18     0  01:55      0.82    0.09    0.15
  HS02004848HS02004852 CONDUIT     40.37     0  01:54      0.54    0.05    0.11
  HS02004856HS02004862 CONDUIT     60.18     0  01:54      0.61    0.06    0.14
  HS02004852HS02004856 CONDUIT     40.43     0  01:55      0.35    0.05    0.17
  HS02004802HS02004478 CONDUIT    184.71     0  01:57      0.53    0.16    0.50
  HS02004478WS02006287 CONDUIT    735.65     0  01:54      2.18    0.21    0.38
  HS02004817HS02004807 CONDUIT    137.06     0  01:57      0.26    0.08    0.77
  HS02004807HS02004802 CONDUIT    183.95     0  01:56      0.47    0.35    0.56
  YS02001759YS02001757 CONDUIT    876.24     0  01:57      1.12    0.62    1.00
  YS02001762YS02001759 CONDUIT    433.48     0  01:55      0.55    0.50    1.00
  YS02001765YS02001762 CONDUIT    434.49     0  01:55      0.55    0.41    1.00
  YS02001770YS02001767 CONDUIT    434.39     0  01:55      0.55    1.72    1.00
  YS02001774YS02001770 CONDUIT    687.11     0  02:52      0.87    0.44    1.00
  YS02001779YS02001774 CONDUIT    687.11     0  02:52      0.87    0.35    1.00
  YS02001649YS02001757 CONDUIT   1005.01     0  01:49      1.28    0.61    1.00
  YS02001767YS02001765 CONDUIT    435.58     0  01:55      0.55    0.55    1.00
  YS02006561YS02001783 CONDUIT    982.96     0  02:09      2.15    0.51    1.00
  YS02001783YS02001784 CONDUIT    983.94     0  02:10      1.96    1.36    1.00
  YS02001784YS02001785 CONDUIT    983.51     0  02:15      1.96    2.29    1.00
  YS02001788YS02001790 CONDUIT    983.76     0  02:14      2.44    0.73    1.00
  YS02001790YS02001791 CONDUIT    983.80     0  02:11      2.91    1.07    1.00
  YS02001791YS02001793 CONDUIT    985.59     0  02:09      5.76    0.42    1.00
  YS02001910YS02001907 CONDUIT    651.42     0  01:52      0.83    0.37    1.00
  YS02001786YS02001788 CONDUIT    983.43     0  02:11      2.31    1.89    1.00
  YS02001915YS02001910 CONDUIT    650.94     0  01:52      0.83    0.32    1.00
  YS02001918YS02001915 CONDUIT    370.69     0  01:52      0.48    0.20    1.00
  YS02001923YS02001920 CONDUIT    364.74     0  01:52      0.82    0.16    1.00
  YS02001926YS02001923 CONDUIT    315.57     0  01:51      0.92    0.45    1.00
  YS02001929YS02001926 CONDUIT    248.72     0  01:52      0.98    0.12    0.99
  YS02001920YS02001918 CONDUIT    368.45     0  01:52      0.77    0.36    1.00
  YS02001629YS02163301 CONDUIT    226.39     0  01:45      0.29    0.28    1.00
  YS02001619YS02001622 CONDUIT    389.13     0  02:15      0.74    0.57    1.00
  YS02001622YS02001625 CONDUIT    388.86     0  02:16      0.50    0.21    1.00
  YS02001625YS02001629 CONDUIT    217.69     0  01:48      0.29    0.10    1.00
  YS02163301YS02001633 CONDUIT    227.95     0  01:45      0.29    0.21    1.00
  YS02163601YS02164001 CONDUIT    455.15     0  01:48      0.58    0.40    1.00
  YS02164001YS02001641 CONDUIT    455.66     0  01:48      0.58    0.62    1.00
  YS02001641YS02001644 CONDUIT    455.59     0  01:48      0.58    1.47    1.00
  YS02001647YS02001649 CONDUIT    758.36     0  02:52      0.97    0.40    1.00
  YS02006553YS02006556 CONDUIT    718.68     0  03:35      0.92    0.61    1.00
  YS02006556YS02006558 CONDUIT    718.83     0  03:35      0.92    0.57    1.00
  YSB6556YSB1171       CONDUIT     46.62     0  01:54      0.14    0.05    0.84
  YS02001907YS02006553 CONDUIT    718.58     0  03:35      0.80    0.85    1.00
  YS02006558YS02006561 CONDUIT    983.20     0  02:11      3.48    2.17    1.00
  YS02001633YS02163601 CONDUIT    455.23     0  01:48      0.58    0.48    1.00
  YS02001644YS02001647 CONDUIT    758.36     0  02:52      0.97    0.45    1.00
  YS02001745YS02001748 CONDUIT    451.31     0  02:16      1.67    0.17    0.97
  YS02001748YS02001751 CONDUIT    451.27     0  02:16      1.21    0.23    1.00
  YS02001751YS02001754 CONDUIT    451.84     0  02:16      1.02    0.22    1.00
  YS02001754YS02001757 CONDUIT    451.20     0  02:16      0.57    0.18    1.00
  YS02001882YS02001884 CONDUIT     63.81     0  01:48      0.16    0.07    1.00
  YS02001884YS02001887 CONDUIT     72.35     0  01:47      0.12    0.10    1.00
  YS02001890YS02001895 CONDUIT    523.89     0  01:51      0.67    0.24    1.00
  YS02001895YS02001898 CONDUIT    525.06     0  01:51      0.67    0.91    1.00
  YS02001898YS02001901 CONDUIT    525.50     0  01:51      0.67    0.34    1.00
  YS02001901YS02001904 CONDUIT    526.86     0  01:51      0.67    0.82    1.00
  YS02001904YS02001907 CONDUIT    526.11     0  01:51      0.67    0.18    1.00
  YS02001887YS02001890 CONDUIT    677.46     0  02:13      0.86    1.16    1.00
  YS02001652YS02001649 CONDUIT    517.64     0  02:11      0.71    0.26    1.00
  YS02001655YS02001652 CONDUIT    517.87     0  02:11      1.09    0.25    1.00
  YS02001658YS02001655 CONDUIT    518.15     0  02:11      1.41    0.22    1.00
  YS02001661YS02001658 CONDUIT    518.33     0  02:11      1.78    0.20    1.00
  YS02001664YS02001661 CONDUIT    750.29     0  01:56      1.69    0.24    0.76
  YSB1154YSB6556       CONDUIT     46.64     0  01:52      0.16    0.08    0.75
  YSB1174YSB1171       CONDUIT     38.37     0  01:50      0.11    0.06    0.87
  YSB1171HS02004479    CONDUIT     83.75     0  01:53      0.54    0.06    0.70
  HS02004881HS02006253 CONDUIT    153.29     0  01:54      2.70    0.03    0.54
  YS02001793JiankangQianchi CONDUIT    984.77     0  02:12     16.54    0.08    1.00
  YS02001757CaochengTiaoxuchi CONDUIT   2147.02     0  01:55      3.55    0.94    1.00
  WSF200WS02003060     CONDUIT    958.75     0  01:55      1.98    0.21    0.45
  1                    CONDUIT   1347.96     0  02:02      3.60    0.47    0.48
  CC-Pump-1            PUMP       200.00     0  02:20              1.00
  CC-Pump-2            PUMP       200.00     0  03:10              1.00
  JK-Pump-1            PUMP       300.00     0  00:00              1.00
  JK-Pump-2            PUMP       683.00     0  02:00              1.00
  XR-Pump-1            PUMP        95.00     0  00:00              1.00
  XR-Pump-2            PUMP        95.00     0  00:00              1.00
  XR-Pump-3            PUMP        95.00     0  00:00              1.00
  XR-Pump-4            PUMP        95.00     0  00:00              1.00
  
  
  ***************************
  Flow Classification Summary
  ***************************
  
  -------------------------------------------------------------------------------------
                      Adjusted    ---------- Fraction of Time in Flow Class ---------- 
                       /Actual         Up    Down  Sub   Sup   Up    Down  Norm  Inlet 
  Conduit               Length    Dry  Dry   Dry   Crit  Crit  Crit  Crit  Ltd   Ctrl  
  -------------------------------------------------------------------------------------
  WS02003066WSF200        1.00   0.01  0.02  0.00  0.00  0.97  0.00  0.00  0.49  0.00
  WS02006287WS02006284    1.00   0.03  0.01  0.00  0.64  0.33  0.00  0.00  0.63  0.00
  WS02006284WS02006280    1.00   0.03  0.00  0.00  0.00  0.00  0.00  0.97  0.00  0.00
  WS02006280WS02006229    1.00   0.04  0.00  0.00  0.02  0.03  0.00  0.91  0.02  0.00
  WS02006229WS02006228    1.00   0.00  0.00  0.00  1.00  0.00  0.00  0.00  0.00  0.00
  WS02006256WS02006235    1.00   0.00  0.00  0.00  1.00  0.00  0.00  0.00  0.00  0.00
  WS02006253WS02006251    1.00   0.02  0.01  0.00  0.96  0.00  0.01  0.00  0.00  0.00
  WS02006252WS02006251    1.00   0.09  0.00  0.00  0.25  0.00  0.66  0.00  0.00  0.00
  WS02006251WS02006249    1.00   0.00  0.00  0.00  1.00  0.00  0.00  0.00  0.16  0.00
  WS02006249WS02006248    1.00   0.00  0.01  0.00  0.95  0.00  0.04  0.00  0.00  0.00
  WS02006248WS02006247    1.00   0.01  0.00  0.00  0.99  0.00  0.00  0.00  0.07  0.00
  WS02006247WS02006245    1.00   0.00  0.00  0.00  0.99  0.00  0.00  0.00  0.00  0.00
  WS02006245WS02006243    1.00   0.00  0.00  0.00  0.97  0.00  0.00  0.02  0.00  0.00
  WS02006243WS02006242    1.00   0.00  0.00  0.00  1.00  0.00  0.00  0.00  0.17  0.00
  WS02006242WS02006240    1.00   0.00  0.00  0.00  1.00  0.00  0.00  0.00  0.00  0.00
  WS02006240WS02006239    1.00   0.00  0.00  0.00  0.96  0.00  0.00  0.03  0.01  0.00
  WS02006239WS02006238    1.00   0.00  0.00  0.00  1.00  0.00  0.00  0.00  0.10  0.00
  WS02006238WS02006235    1.00   0.00  0.00  0.00  1.00  0.00  0.00  0.00  0.00  0.00
  WS02006235WS02006234    1.00   0.00  0.00  0.00  0.98  0.00  0.02  0.00  0.00  0.00
  WS02006234WS02006232    1.00   0.00  0.00  0.00  1.00  0.00  0.00  0.00  0.06  0.00
  WS02006232WS02006231    1.00   0.00  0.00  0.00  1.00  0.00  0.00  0.00  0.00  0.00
  WS02006231WS02006230    1.00   0.00  0.00  0.00  0.87  0.00  0.13  0.00  0.00  0.00
  WS02006230WS02006229    1.00   0.00  0.00  0.00  1.00  0.00  0.00  0.00  0.00  0.00
  WS02006228WS02006109    1.00   0.00  0.00  0.00  1.00  0.00  0.00  0.00  0.00  0.00
  WS02006116WS02004401    1.00   0.01  0.00  0.00  0.99  0.00  0.00  0.00  0.00  0.00
  WS02006115WS02006116    1.00   0.01  0.00  0.00  0.99  0.00  0.00  0.00  0.00  0.00
  WS02006113WS02006111    1.00   0.01  0.00  0.00  0.06  0.93  0.00  0.00  0.12  0.00
  WS02006112WS02006115    1.00   0.01  0.00  0.00  0.99  0.00  0.00  0.00  0.00  0.00
  WS02006111WS02006112    1.00   0.01  0.00  0.00  0.99  0.00  0.00  0.00  0.77  0.00
  WS02006110WS02006113    1.00   0.00  0.00  0.00  0.99  0.00  0.00  0.00  0.00  0.00
  WS02006109WS02006110    1.00   0.00  0.00  0.00  0.99  0.00  0.00  0.00  0.00  0.00
  WS02004411WS02004412    1.00   0.01  0.00  0.00  0.99  0.00  0.00  0.00  0.00  0.00
  WS02004401WS02004402    1.00   0.01  0.00  0.00  0.99  0.00  0.00  0.00  0.00  0.00
  WS02004413WS02003067    1.00   0.02  0.01  0.00  0.00  0.00  0.98  0.00  0.00  0.00
  WS02004412WS02004413    1.00   0.02  0.00  0.00  0.98  0.00  0.00  0.00  0.01  0.00
  WS02004410WS02004411    1.00   0.01  0.00  0.00  0.99  0.00  0.00  0.00  0.00  0.00
  WS02004409WS02004410    1.00   0.01  0.00  0.00  0.99  0.00  0.00  0.00  0.02  0.00
  WS02004407WS02004409    1.00   0.01  0.00  0.00  0.98  0.00  0.00  0.00  0.95  0.00
  WS02004406WS02004407    1.00   0.00  0.01  0.00  0.99  0.00  0.00  0.00  0.00  0.00
  WS02004405WS02004406    1.00   0.00  0.00  0.00  1.00  0.00  0.00  0.00  0.00  0.00
  WS02004404WS02004405    1.00   0.00  0.00  0.00  1.00  0.00  0.00  0.00  0.00  0.00
  WS02004403WS02004404    1.00   0.00  0.01  0.00  0.99  0.00  0.00  0.00  0.00  0.00
  WS02004402WS02004403    1.00   0.01  0.00  0.00  0.99  0.00  0.00  0.00  0.00  0.00
  WS02004139WS02001211    1.00   0.00  0.00  0.00  1.00  0.00  0.00  0.00  0.00  0.00
  WS02004138WS02004139    1.00   0.00  0.00  0.00  1.00  0.00  0.00  0.00  1.00  0.00
  WS02003067WS02003066    1.00   0.02  0.00  0.00  0.97  0.00  0.00  0.00  0.00  0.00
  WS02001213WS02003059    1.00   0.00  0.00  0.00  1.00  0.00  0.00  0.00  0.00  0.00
  WS02001212WS02001213    1.00   0.00  0.00  0.00  0.94  0.00  0.06  0.00  0.00  0.00
  WS02001211WS02001212    1.00   0.00  0.00  0.00  1.00  0.00  0.00  0.00  0.00  0.00
  WS02003072WS02003073    1.00   0.00  0.00  0.00  0.00  0.00  0.00  1.00  0.00  0.00
  WS02003069WS02003072    1.00   0.00  0.00  0.00  1.00  0.00  0.00  0.00  0.10  0.00
  WS02003060WS02003069    1.00   0.00  0.00  0.00  0.99  0.01  0.00  0.00  0.09  0.00
  WS02003059WS02003060    1.00   0.00  0.00  0.00  1.00  0.00  0.00  0.00  0.01  0.00
  HS02004901HS02004770    1.00   0.03  0.00  0.00  0.97  0.00  0.00  0.00  0.00  0.00
  HS02004876HS02004881    1.00   0.01  0.00  0.00  0.91  0.08  0.00  0.00  0.00  0.00
  HS02004870HS02004876    1.00   0.00  0.00  0.00  0.99  0.00  0.00  0.00  0.95  0.00
  HS02004842HS02004848    1.00   0.00  0.03  0.00  0.97  0.00  0.00  0.00  0.56  0.00
  HS02004837HS02004842    1.00   0.00  0.00  0.00  1.00  0.00  0.00  0.00  0.11  0.00
  HS02004830HS02004837    1.00   0.00  0.00  0.00  1.00  0.00  0.00  0.00  0.99  0.00
  HS02004824HS02004830    1.00   0.00  0.00  0.00  1.00  0.00  0.00  0.00  0.03  0.00
  HS02004817HS02004824    1.00   0.00  0.00  0.00  1.00  0.00  0.00  0.00  0.92  0.00
  HS02004770HS02004777    1.00   0.00  0.03  0.00  0.97  0.00  0.00  0.00  0.02  0.00
  HS02004799HS02004480    1.00   0.00  0.01  0.00  0.96  0.00  0.03  0.00  0.00  0.00
  HS02004792HS02004799    1.00   0.00  0.00  0.00  1.00  0.00  0.00  0.00  0.98  0.00
  HS02004788HS02004792    1.00   0.00  0.00  0.00  1.00  0.00  0.00  0.00  0.98  0.00
  HS02004785HS02004788    1.00   0.00  0.00  0.00  1.00  0.00  0.00  0.00  0.00  0.00
  HS02004777HS02004785    1.00   0.00  0.00  0.00  1.00  0.00  0.00  0.00  0.11  0.00
  HS02004480HS02004478    1.00   0.03  0.00  0.00  0.72  0.00  0.00  0.25  0.00  0.00
  HS02004479HS02004480    1.00   0.01  0.00  0.00  0.99  0.00  0.00  0.00  0.11  0.00
  HS02004862HS02004870    1.00   0.00  0.00  0.00  1.00  0.00  0.00  0.00  0.03  0.00
  HS02004848HS02004852    1.00   0.03  0.00  0.00  0.97  0.00  0.00  0.00  0.79  0.00
  HS02004856HS02004862    1.00   0.00  0.04  0.00  0.96  0.00  0.00  0.00  0.84  0.00
  HS02004852HS02004856    1.00   0.03  0.00  0.00  0.97  0.00  0.00  0.00  0.77  0.00
  HS02004802HS02004478    1.00   0.03  0.00  0.00  0.97  0.00  0.00  0.00  0.02  0.00
  HS02004478WS02006287    1.00   0.04  0.00  0.00  0.76  0.20  0.00  0.00  0.62  0.00
  HS02004817HS02004807    1.00   0.00  0.03  0.00  0.97  0.00  0.00  0.00  0.01  0.00
  HS02004807HS02004802    1.00   0.03  0.00  0.00  0.96  0.00  0.00  0.00  0.00  0.00
  YS02001759YS02001757    1.00   0.00  0.00  0.00  1.00  0.00  0.00  0.00  0.15  0.00
  YS02001762YS02001759    1.00   0.00  0.00  0.00  1.00  0.00  0.00  0.00  0.02  0.00
  YS02001765YS02001762    1.00   0.00  0.00  0.00  1.00  0.00  0.00  0.00  0.13  0.00
  YS02001770YS02001767    1.00   0.00  0.00  0.00  1.00  0.00  0.00  0.00  0.00  0.00
  YS02001774YS02001770    1.00   0.00  0.03  0.00  0.97  0.00  0.00  0.00  0.02  0.00
  YS02001779YS02001774    1.00   0.00  0.00  0.00  1.00  0.00  0.00  0.00  0.17  0.00
  YS02001649YS02001757    1.00   0.00  0.00  0.00  1.00  0.00  0.00  0.00  0.15  0.00
  YS02001767YS02001765    1.00   0.00  0.00  0.00  1.00  0.00  0.00  0.00  0.00  0.00
  YS02006561YS02001783    1.00   0.04  0.00  0.00  0.43  0.53  0.00  0.00  0.44  0.00
  YS02001783YS02001784    1.00   0.00  0.04  0.00  0.96  0.00  0.00  0.00  0.00  0.00
  YS02001784YS02001785    1.00   0.00  0.00  0.00  1.00  0.00  0.00  0.00  0.16  0.00
  YS02001788YS02001790    1.00   0.00  0.00  0.00  0.46  0.54  0.00  0.00  0.35  0.00
  YS02001790YS02001791    1.00   0.00  0.00  0.00  0.43  0.57  0.00  0.00  0.40  0.00
  YS02001791YS02001793    1.00   0.00  0.00  0.00  0.47  0.53  0.00  0.00  0.02  0.00
  YS02001910YS02001907    1.00   0.00  0.00  0.00  0.99  0.00  0.00  0.01  0.12  0.00
  YS02001786YS02001788    1.00   0.00  0.00  0.00  0.44  0.56  0.00  0.00  0.00  0.00
  YS02001915YS02001910    1.00   0.00  0.00  0.00  0.99  0.01  0.00  0.00  0.13  0.00
  YS02001918YS02001915    1.00   0.00  0.00  0.00  0.99  0.01  0.00  0.00  0.51  0.00
  YS02001923YS02001920    1.00   0.00  0.00  0.00  1.00  0.00  0.00  0.00  0.74  0.00
  YS02001926YS02001923    1.00   0.00  0.02  0.00  0.21  0.00  0.77  0.00  0.00  0.00
  YS02001929YS02001926    1.00   0.00  0.03  0.00  0.97  0.00  0.00  0.00  0.65  0.00
  YS02001920YS02001918    1.00   0.00  0.00  0.00  1.00  0.00  0.00  0.00  0.00  0.00
  YS02001629YS02163301    1.00   0.04  0.00  0.00  0.96  0.00  0.00  0.00  0.00  0.00
  YS02001619YS02001622    1.00   0.03  0.00  0.00  0.97  0.00  0.00  0.00  0.00  0.00
  YS02001622YS02001625    1.00   0.03  0.00  0.00  0.97  0.00  0.00  0.00  0.03  0.00
  YS02001625YS02001629    1.00   0.03  0.01  0.00  0.95  0.00  0.01  0.00  0.00  0.00
  YS02163301YS02001633    1.00   0.00  0.04  0.00  0.96  0.00  0.00  0.00  0.00  0.00
  YS02163601YS02164001    1.00   0.00  0.02  0.00  0.98  0.00  0.00  0.00  0.00  0.00
  YS02164001YS02001641    1.00   0.00  0.02  0.00  0.98  0.00  0.00  0.00  0.06  0.00
  YS02001641YS02001644    1.00   0.00  0.00  0.00  1.00  0.00  0.00  0.00  0.00  0.00
  YS02001647YS02001649    1.00   0.00  0.04  0.00  0.96  0.00  0.00  0.00  0.01  0.00
  YS02006553YS02006556    1.00   0.00  0.00  0.00  1.00  0.00  0.00  0.00  0.03  0.00
  YS02006556YS02006558    1.00   0.00  0.00  0.00  1.00  0.00  0.00  0.00  0.00  0.00
  YSB6556YSB1171          1.00   0.01  0.02  0.00  0.97  0.00  0.00  0.00  0.00  0.00
  YS02001907YS02006553    1.00   0.00  0.01  0.00  0.99  0.00  0.00  0.00  0.00  0.00
  YS02006558YS02006561    1.00   0.04  0.00  0.00  0.21  0.74  0.00  0.00  0.43  0.00
  YS02001633YS02163601    1.00   0.00  0.00  0.00  1.00  0.00  0.00  0.00  0.15  0.00
  YS02001644YS02001647    1.00   0.00  0.04  0.00  0.96  0.00  0.00  0.00  0.00  0.00
  YS02001745YS02001748    1.00   0.00  0.00  0.00  0.93  0.00  0.00  0.06  0.01  0.00
  YS02001748YS02001751    1.00   0.00  0.00  0.00  0.98  0.02  0.00  0.00  0.14  0.00
  YS02001751YS02001754    1.00   0.00  0.00  0.00  0.95  0.00  0.00  0.05  0.01  0.00
  YS02001754YS02001757    1.00   0.00  0.00  0.00  1.00  0.00  0.00  0.00  0.17  0.00
  YS02001882YS02001884    1.00   0.04  0.00  0.00  0.96  0.00  0.00  0.00  0.00  0.00
  YS02001884YS02001887    1.00   0.02  0.01  0.00  0.97  0.00  0.00  0.00  0.00  0.00
  YS02001890YS02001895    1.00   0.00  0.04  0.00  0.96  0.00  0.00  0.00  0.00  0.00
  YS02001895YS02001898    1.00   0.04  0.00  0.00  0.96  0.00  0.01  0.00  0.00  0.00
  YS02001898YS02001901    1.00   0.04  0.00  0.00  0.96  0.00  0.00  0.00  0.01  0.00
  YS02001901YS02001904    1.00   0.04  0.00  0.00  0.96  0.00  0.00  0.00  0.00  0.00
  YS02001904YS02001907    1.00   0.00  0.04  0.00  0.96  0.00  0.00  0.00  0.00  0.00
  YS02001887YS02001890    1.00   0.00  0.00  0.00  0.99  0.00  0.01  0.00  0.00  0.00
  YS02001652YS02001649    1.00   0.00  0.00  0.00  1.00  0.00  0.00  0.00  0.15  0.00
  YS02001655YS02001652    1.00   0.00  0.00  0.00  0.95  0.00  0.00  0.05  0.01  0.00
  YS02001658YS02001655    1.00   0.00  0.03  0.00  0.95  0.02  0.00  0.00  0.02  0.00
  YS02001661YS02001658    1.00   0.03  0.00  0.00  0.93  0.03  0.00  0.00  0.01  0.00
  YS02001664YS02001661    1.00   0.03  0.00  0.00  0.94  0.03  0.00  0.00  0.10  0.00
  YSB1154YSB6556          1.00   0.03  0.00  0.00  0.97  0.00  0.00  0.00  0.01  0.00
  YSB1174YSB1171          1.00   0.02  0.01  0.00  0.97  0.00  0.00  0.00  0.00  0.00
  YSB1171HS02004479       1.00   0.01  0.00  0.00  0.98  0.00  0.00  0.00  0.10  0.00
  HS02004881HS02006253    1.00   0.02  0.00  0.00  0.90  0.01  0.00  0.08  0.76  0.00
  YS02001793JiankangQianchi    1.00   0.00  0.00  0.00  0.73  0.27  0.00  0.00  0.33  0.00
  YS02001757CaochengTiaoxuchi    1.00   0.00  0.05  0.00  0.92  0.02  0.00  0.00  0.00  0.00
  WSF200WS02003060        1.00   0.00  0.01  0.00  0.99  0.00  0.00  0.00  0.25  0.00
  1                       1.00   0.00  0.00  0.00  0.00  1.00  0.00  0.00  0.50  0.00
  
  
  *************************
  Conduit Surcharge Summary
  *************************
  
  ----------------------------------------------------------------------------
                                                           Hours        Hours 
                         --------- Hours Full --------   Above Full   Capacity
  Conduit                Both Ends  Upstream  Dnstream   Normal Flow   Limited
  ----------------------------------------------------------------------------
  WS02006229WS02006228        4.99      5.07      4.99      6.13         4.99
  WS02006256WS02006235        6.44      6.44      6.97      4.92         0.01
  WS02006253WS02006251        3.23      3.23      3.29      0.01         0.01
  WS02006252WS02006251        2.44      2.44      3.91      2.65         0.01
  WS02006251WS02006249        3.25      3.25      3.31      1.81         1.61
  WS02006249WS02006248        3.24      3.24      3.31      5.29         0.01
  WS02006248WS02006247        3.30      3.30      3.47      0.01         0.01
  WS02006247WS02006245        3.45      3.50      3.45      5.51         3.19
  WS02006245WS02006243        3.48      3.49      3.58      0.50         0.51
  WS02006243WS02006242        3.63      3.63      4.37      0.01         0.01
  WS02006242WS02006240        4.12      4.12      4.70      3.25         0.01
  WS02006240WS02006239        4.22      4.23      4.44      1.68         0.96
  WS02006239WS02006238        4.66      4.68      4.80      1.80         1.16
  WS02006238WS02006235        4.77      4.77      4.95      0.01         0.03
  WS02006235WS02006234        4.34      4.34      4.71      6.24         0.02
  WS02006234WS02006232        4.56      4.56      4.99      1.21         1.18
  WS02006232WS02006231        3.06      3.06      4.99      1.48         0.01
[...]
  YS02001779YS02001774        6.12      6.12      6.19      0.01         0.01
  YS02001649YS02001757        6.19      6.19      6.23      0.01         0.01
  YS02001767YS02001765        6.18      6.18      6.18      0.01         0.01
  YS02006561YS02001783        1.69      1.69      1.93      0.01         0.01
  YS02001783YS02001784        1.91      1.93      1.91      2.12         1.89
  YS02001784YS02001785        1.85      1.91      1.85      2.89         1.85
  YS02001788YS02001790        1.80      1.80      2.69      0.01         0.01
  YS02001790YS02001791        2.68      2.69      2.78      1.82         1.80
  YS02001791YS02001793        2.78      2.78      3.13      0.01         0.01
  YS02001910YS02001907        1.93      1.93      2.40      0.01         0.01
  YS02001786YS02001788        1.80      1.85      1.80      2.53         1.80
  YS02001915YS02001910        1.79      1.79      1.93      0.01         0.01
  YS02001918YS02001915        1.65      1.65      1.79      0.01         0.01
  YS02001923YS02001920        1.49      1.49      1.68      0.01         0.01
  YS02001926YS02001923        0.01      0.01      0.01      0.01         0.01
  YS02001929YS02001926        0.01      0.01      0.01      0.01         0.01
  YS02001920YS02001918        1.65      1.65      1.68      0.01         0.01
  YS02001629YS02163301        6.16      6.16      6.17      0.01         0.01
  YS02001619YS02001622        6.09      6.09      6.10      0.01         0.02
  YS02001622YS02001625        6.10      6.10      6.15      0.01         0.01
  YS02001625YS02001629        6.08      6.08      6.15      0.01         0.01
  YS02163301YS02001633        6.17      6.17      6.18      0.01         0.01
  YS02163601YS02164001        6.17      6.17      6.20      0.01         0.01
  YS02164001YS02001641        6.17      6.17      6.18      0.01         0.03
  YS02001641YS02001644        6.18      6.18      6.18      2.37         2.56
  YS02001647YS02001649        6.15      6.15      6.19      0.01         0.01
  YS02006553YS02006556        2.10      2.10      2.47      0.01         0.01
  YS02006556YS02006558        2.22      2.22      2.54      0.01         0.01
  YSB6556YSB1171              0.01      0.01      0.30      0.01         0.01
  YS02001907YS02006553        2.93      2.93      3.14      0.01         0.01
  YS02006558YS02006561        1.78      2.07      1.78      2.79         1.78
  YS02001633YS02163601        6.17      6.17      6.20      0.01         0.01
  YS02001644YS02001647        6.15      6.15      6.18      0.01         0.01
  YS02001745YS02001748        0.01      0.01      6.04      0.01         0.01
  YS02001748YS02001751        6.05      6.05      6.09      0.01         0.01
  YS02001751YS02001754        6.09      6.09      6.14      0.01         0.01
  YS02001754YS02001757        6.15      6.15      6.23      0.01         0.01
  YS02001882YS02001884        1.80      1.80      1.82      0.01         0.01
  YS02001884YS02001887        1.85      1.85      1.87      0.01         0.01
  YS02001890YS02001895        1.78      1.78      1.94      0.01         0.01
  YS02001895YS02001898        1.78      1.78      1.78      0.01         0.01
  YS02001898YS02001901        1.79      1.79      1.85      0.01         0.01
  YS02001901YS02001904        1.83      1.83      1.85      0.01         0.01
  YS02001904YS02001907        1.83      1.83      2.49      0.01         0.01
  YS02001887YS02001890        1.89      1.89      1.91      0.52         0.01
  YS02001652YS02001649        6.16      6.16      6.19      0.01         0.01
  YS02001655YS02001652        6.10      6.10      6.15      0.01         0.01
  YS02001658YS02001655        6.05      6.05      6.10      0.01         0.01
  YS02001661YS02001658        0.12      0.12      6.05      0.01         0.01
  YS02001664YS02001661        0.01      0.01      1.90      0.01         0.01
  HS02004881HS02006253        0.01      0.01      2.18      0.01         0.01
  YS02001793JiankangQianchi        3.04      3.04      4.37      0.01         0.01
  YS02001757CaochengTiaoxuchi        5.75      5.75      6.23      0.01         0.01
  
  
  ***************
  Pumping Summary
  ***************
  
  ---------------------------------------------------------------------------------------------------------
                                                  Min       Avg       Max     Total     Power    % Time Off
                        Percent   Number of      Flow      Flow      Flow    Volume     Usage    Pump Curve
  Pump                 Utilized   Start-Ups       LPS       LPS       LPS  10^6 ltr     Kw-hr    Low   High
  ---------------------------------------------------------------------------------------------------------
  CC-Pump-1               72.33           2      0.00    193.16    200.00     3.900      4.18    0.0    0.0
  CC-Pump-2               46.80           6      0.00    101.48    200.00     1.680      2.34    0.0    0.0
  JK-Pump-1               68.09           4      0.00    244.65    300.00     4.561     59.99    0.0    0.0
  JK-Pump-2               55.32           3      0.00    465.17    683.00     7.242     86.05    0.0   98.0
  XR-Pump-1              100.00           1      0.00     95.00     95.00     2.679     23.13    0.0    0.0
  XR-Pump-2              100.00           1      0.00     94.17     95.00     2.622     21.91    0.0    0.0
  XR-Pump-3               93.62           2      0.00     94.26     95.00     2.451     18.03    0.0    0.0
  XR-Pump-4               93.62           2      0.00     94.26     95.00     2.451     18.03    0.0    0.0
  
  
  ***************************
  Link Pollutant Load Summary
  ***************************
  
  ------------------------------------------------------------------------------------------
                                 COD            SS            TN            TP         NH4-N
  Link                            kg            kg            kg            kg            kg
  ------------------------------------------------------------------------------------------
  WS02003066WSF200          1230.819      2361.620        29.093         2.400        14.929
  WS02006287WS02006284       438.106       854.585        12.586         1.181         6.763
  WS02006284WS02006280       438.609       855.394        12.634         1.187         6.793
  WS02006280WS02006229       438.617       855.452        12.632         1.187         6.791
  WS02006229WS02006228      1226.799      2353.683        28.479         2.314        14.535
  WS02006256WS02006235       246.769       463.602         5.246         0.396         2.620
  WS02006253WS02006251        82.457       165.916         1.750         0.128         0.858
  WS02006252WS02006251       549.263      1044.382        10.615         0.725         5.115
  WS02006251WS02006249       625.487      1198.540        12.266         0.848         5.931
  WS02006249WS02006248       555.293      1061.184        10.911         0.755         5.279
  WS02006248WS02006247       552.338      1054.968        10.855         0.751         5.252
  WS02006247WS02006245       552.542      1055.492        10.857         0.751         5.253
  WS02006245WS02006243       553.055      1056.724        10.863         0.751         5.255
  WS02006243WS02006242       553.718      1058.082        10.878         0.752         5.263
  WS02006242WS02006240       553.070      1056.762        10.867         0.752         5.258
  WS02006240WS02006239       552.624      1055.653        10.866         0.752         5.259
  WS02006239WS02006238       552.197      1054.424        10.875         0.754         5.266
  WS02006238WS02006235       551.477      1052.701        10.869         0.754         5.265
  WS02006235WS02006234       792.264      1505.652        15.951         1.136         7.797
  WS02006234WS02006232       791.563      1504.421        15.935         1.135         7.789
  WS02006232WS02006231       790.752      1502.934        15.917         1.133         7.780
  WS02006231WS02006230       790.265      1502.036        15.909         1.133         7.777
  WS02006230WS02006229       790.457      1502.470        15.921         1.135         7.784
  WS02006228WS02006109      1225.549      2351.456        28.443         2.311        14.515
  WS02006116WS02004401      1243.399      2384.809        29.349         2.417        15.053
  WS02006115WS02006116      1244.854      2387.457        29.388         2.421        15.074
  WS02006113WS02006111      1230.787      2359.323        29.163         2.404        14.974
  WS02006112WS02006115      1246.299      2390.085        29.432         2.425        15.098
  WS02006111WS02006112      1229.967      2357.737        29.141         2.402        14.962
  WS02006110WS02006113      1231.423      2360.408        29.183         2.406        14.985
  WS02006109WS02006110      1232.711      2362.662        29.225         2.410        15.008
  WS02004411WS02004412      1234.359      2368.088        29.195         2.409        14.984
  WS02004401WS02004402      1242.040      2382.342        29.308         2.414        15.031
  WS02004413WS02003067      1231.640      2363.166        29.109         2.401        14.937
  WS02004412WS02004413      1232.992      2365.600        29.157         2.406        14.964
  WS02004410WS02004411      1235.483      2370.142        29.224         2.412        14.999
  WS02004409WS02004410      1236.576      2372.134        29.255         2.414        15.016
  WS02004407WS02004409      1237.517      2373.849        29.278         2.416        15.028
  WS02004406WS02004407      1237.769      2374.306        29.280         2.416        15.028
  WS02004405WS02004406      1239.149      2376.780        29.327         2.421        15.054
  WS02004404WS02004405      1240.226      2378.800        29.333         2.420        15.054
  WS02004403WS02004404      1239.771      2378.222        29.243         2.408        14.996
  WS02004402WS02004403      1240.836      2380.162        29.275         2.411        15.014
  WS02004139WS02001211      1366.313      2315.239       102.564        12.373        62.800
  WS02004138WS02004139      1372.481      2325.654       103.021        12.428        63.079
  WS02003067WS02003066      1231.017      2361.995        29.098         2.401        14.932
  WS02001213WS02003059      1399.468      2367.101       106.042        12.812        64.988
  WS02001212WS02001213      1408.482      2382.173       106.748        12.898        65.422
  WS02001211WS02001212      1410.673      2385.762       106.936        12.921        65.538
  WS02003072WS02003073      2729.362      4885.620       145.094        16.465        86.160
  WS02003069WS02003072      2734.776      4894.546       145.536        16.518        86.433
  WS02003060WS02003069      2737.642      4899.594       145.681        16.535        86.518
  WS02003059WS02003060      1396.349      2361.754       105.832        12.788        64.860
  HS02004901HS02004770        19.400        38.444         0.369         0.028         0.174
  HS02004876HS02004881        64.844       131.159         1.382         0.100         0.674
  HS02004870HS02004876        49.302        99.621         1.095         0.080         0.537
  HS02004842HS02004848         9.278        18.136         0.191         0.013         0.089
  HS02004837HS02004842        13.925        25.525         0.662         0.072         0.384
  HS02004830HS02004837        81.309       145.733         4.858         0.568         2.931
  HS02004824HS02004830        82.102       147.038         4.931         0.577         2.976
  HS02004817HS02004824       118.566       221.809         5.667         0.624         3.333
  HS02004770HS02004777        73.687       147.830         1.507         0.104         0.700
  HS02004799HS02004480       235.091       460.658         5.679         0.484         2.882
  HS02004792HS02004799       214.148       417.346         5.330         0.464         2.722
  HS02004788HS02004792       116.318       227.349         3.333         0.303         1.755
  HS02004785HS02004788        75.103       150.096         1.653         0.123         0.793
  HS02004777HS02004785        74.433       149.021         1.592         0.115         0.755
  HS02004480HS02004478       294.434       579.952         6.704         0.559         3.370
  HS02004479HS02004480        62.981       125.166         1.335         0.113         0.681
  HS02004862HS02004870        37.533        74.851         0.862         0.066         0.425
  HS02004848HS02004852        15.822        31.382         0.320         0.022         0.149
  HS02004856HS02004862        25.851        52.199         0.514         0.035         0.242
  HS02004852HS02004856        15.836        31.405         0.320         0.022         0.149
  HS02004802HS02004478       144.598       276.117         5.948         0.629         3.432
  HS02004478WS02006287       438.252       854.794        12.603         1.183         6.773
  HS02004817HS02004807       117.207       219.665         5.527         0.607         3.246
  HS02004807HS02004802       144.763       276.368         5.980         0.634         3.453
  YS02001759YS02001757       464.190       876.555         9.086         0.635         4.428
  YS02001762YS02001759       227.121       426.522         4.665         0.328         2.294
  YS02001765YS02001762       228.475       430.205         4.706         0.331         2.317
  YS02001770YS02001767       232.518       441.170         4.630         0.314         2.253
  YS02001774YS02001770       425.662       837.554         8.189         0.550         3.962
  YS02001779YS02001774       424.564       835.394         8.251         0.560         4.008
  YS02001649YS02001757       395.304       737.555         7.788         0.541         3.741
  YS02001767YS02001765       230.643       435.503         4.758         0.335         2.344
  YS02006561YS02001783      1263.284      2385.043        26.075         1.927        12.908
  YS02001783YS02001784      1263.182      2384.886        26.071         1.926        12.906
  YS02001784YS02001785      1270.540      2396.682        26.784         2.016        13.352
  YS02001788YS02001790      1271.130      2397.634        26.855         2.025        13.397
  YS02001790YS02001791      1272.210      2399.378        26.957         2.038        13.460
  YS02001791YS02001793      1272.110      2399.195        26.952         2.037        13.458
  YS02001910YS02001907       566.036      1068.730        12.815         0.949         6.476
  YS02001786YS02001788      1270.722      2396.974        26.811         2.019        13.369
  YS02001915YS02001910       565.764      1068.192        12.768         0.942         6.445
  YS02001918YS02001915       279.385       506.640         6.950         0.600         3.657
  YS02001923YS02001920       254.135       463.510         4.925         0.354         2.407
  YS02001926YS02001923       251.104       458.051         4.807         0.342         2.340
  YS02001929YS02001926       248.355       453.250         4.682         0.329         2.267
  YS02001920YS02001918       275.260       497.996         6.858         0.594         3.612
  YS02001629YS02163301        89.681       159.318         1.894         0.125         0.888
  YS02001619YS02001622       259.386       485.245         5.243         0.348         2.461
  YS02001622YS02001625       258.409       483.710         5.219         0.346         2.450
  YS02001625YS02001629        86.736       153.477         1.848         0.120         0.865
  YS02163301YS02001633        94.512       168.794         1.971         0.131         0.926
  YS02163601YS02164001       529.061       976.565        10.165         0.735         4.886
  YS02164001YS02001641       528.968       976.398        10.153         0.733         4.879
  YS02001641YS02001644       529.978       978.088        10.165         0.734         4.884
  YS02001647YS02001649       546.650      1026.879        10.751         0.753         5.127
  YS02006553YS02006556       782.287      1458.011        16.643         1.261         8.339
  YS02006556YS02006558       782.441      1458.298        16.609         1.256         8.315
  YSB6556YSB1171              36.521        72.732         0.718         0.059         0.359
  YS02001907YS02006553       782.279      1458.012        16.671         1.265         8.358
  YS02006558YS02006561      1263.250      2384.967        26.074         1.927        12.908
  YS02001633YS02163601       529.654       977.501        10.142         0.730         4.868
  YS02001644YS02001647       554.452      1041.727        10.883         0.763         5.190
  YS02001745YS02001748       354.085       679.987         6.989         0.437         3.358
  YS02001748YS02001751       353.391       678.807         6.996         0.440         3.366
  YS02001751YS02001754       352.503       677.351         6.983         0.440         3.361
  YS02001754YS02001757       353.335       678.599         7.150         0.462         3.469
  YS02001882YS02001884         5.517         9.859         0.104         0.008         0.051
  YS02001884YS02001887         7.845        14.167         0.148         0.011         0.073
  YS02001890YS02001895       614.628      1175.152        11.358         0.858         5.542
  YS02001895YS02001898       614.506      1175.023        11.352         0.858         5.538
  YS02001898YS02001901       614.581      1175.062        11.356         0.858         5.541
  YS02001901YS02001904       613.963      1174.166        11.350         0.858         5.539
  YS02001904YS02001907       614.770      1175.402        11.425         0.867         5.585
  YS02001887YS02001890       669.121      1284.135        12.353         0.936         6.030
  YS02001652YS02001649       306.808       583.566         6.079         0.440         2.858
  YS02001655YS02001652       307.259       584.328         6.092         0.441         2.864
  YS02001658YS02001655       306.718       583.495         6.004         0.429         2.807
  YS02001661YS02001658       307.309       584.490         6.018         0.430         2.814
  YS02001664YS02001661       324.796       612.725         6.428         0.458         3.001
  YSB1154YSB6556              36.101        72.068         0.671         0.053         0.330
  YSB1174YSB1171              24.945        50.011         0.488         0.039         0.242
  YSB1171HS02004479           62.901       125.018         1.340         0.114         0.684
  HS02004881HS02006253        73.375       148.986         1.530         0.109         0.744
  YS02001793JiankangQianchi      1272.861      2400.452        26.980         2.040        13.473
  YS02001757CaochengTiaoxuchi       802.724      1505.842        15.856         1.084         7.663
  WSF200WS02003060          1230.419      2360.856        29.090         2.400        14.929
  1                         2735.787      4894.711       146.030        16.587        86.758
  CC-Pump-1                  384.651       731.525         7.430         0.507         3.580
  CC-Pump-2                  164.404       312.403         3.181         0.217         1.533
  JK-Pump-1                  373.348       707.235         7.782         0.583         3.870
  JK-Pump-2                  726.275      1394.544        14.572         1.069         7.175
  XR-Pump-1                  373.582       630.212        28.662         3.470        17.586
  XR-Pump-2                  360.916       609.947        27.449         3.319        16.828
  XR-Pump-3                  320.802       545.766        23.599         2.837        14.421
  XR-Pump-4                  320.802       545.766        23.599         2.837        14.421
  

  Analysis begun on:  Wed Jul 14 15:28:31 2021
  Analysis ended on:  Wed Jul 14 15:28:34 2021
  Total elapsed time: 00:00:03