
  EPA STORM WATER MANAGEMENT MODEL - VERSION 5.1 (Build 5.3.0.dev0)
  --------------------------------------------------------------

  WARNING 04: minimum elevation drop used for Conduit WS02004404WS02004405
  WARNING 03: negative offset ignored for Link YS02001904YS02001907
  
  *********************************************************
  NOTE: The summary statistics displayed in this report are
  based on results found at every computational time step,  
  not just on results from each reporting time step.
  *********************************************************
  
  ****************
  Analysis Options
  ****************
  Flow Units ............... LPS
  Process Models:
    Rainfall/Runoff ........ YES
    RDII ................... NO
    Snowmelt ............... NO
    Groundwater ............ NO
    Flow Routing ........... YES
    Ponding Allowed ........ NO
    Water Quality .......... YES
  Infiltration Method ...... HORTON
  Flow Routing Method ...... DYNWAVE
  Surcharge Method ......... EXTRAN
  Starting Date ............ 08/28/2015 08:00:00
  Ending Date .............. 08/28/2015 15:50:00
  Antecedent Dry Days ...... 8.0
  Report Time Step ......... 00:01:00
  Wet Time Step ............ 00:01:00
  Dry Time Step ............ 00:01:00
  Routing Time Step ........ 5.00 sec
  Variable Time Step ....... YES
  Maximum Trials ........... 8
  Number of Threads ........ 4
  Head Tolerance ........... 0.001500 m
  
  
  **************************        Volume         Depth
  Runoff Quantity Continuity     hectare-m            mm
  **************************     ---------       -------
  Total Precipitation ......         7.641        16.729
  Evaporation Loss .........         0.000         0.000
  Infiltration Loss ........         1.184         2.592
  Surface Runoff ...........         5.481        12.000
  Final Storage ............         0.977         2.139
  Continuity Error (%) .....        -0.016
  
  
  **************************           COD            SS            TN            TP         NH4-N
  Runoff Quality Continuity             kg            kg            kg            kg            kg
  **************************    ----------    ----------    ----------    ----------    ----------
  Initial Buildup ..........     41378.656     70582.865      1804.177       168.684      1032.807
  Surface Buildup ..........        30.344        63.217         2.449         0.220         1.402
  Wet Deposition ...........         0.000         0.000         0.000         0.000         0.000
  Sweeping Removal .........         0.000         0.000         0.000         0.000         0.000
  Infiltration Loss ........       127.934       247.015         2.452         0.174         1.174
  BMP Removal ..............         0.000         0.000         0.000         0.000         0.000
  Surface Runoff ...........      5553.100     10632.121       107.101         7.411        51.076
  Remaining Buildup ........     35725.917     59762.998      1697.031       161.316       981.940
  Continuity Error (%) .....         0.005         0.006         0.002         0.002         0.002
  
  
  **************************        Volume        Volume
  Flow Routing Continuity        hectare-m      10^6 ltr
  **************************     ---------     ---------
  Dry Weather Inflow .......         0.616         6.165
  Wet Weather Inflow .......         5.479        54.792
  Groundwater Inflow .......         0.000         0.000
  RDII Inflow ..............         0.000         0.000
  External Inflow ..........         0.102         1.024
  External Outflow .........         2.224        22.237
  Flooding Loss ............         3.529        35.290
  Evaporation Loss .........         0.000         0.000
  Exfiltration Loss ........         0.000         0.000
  Initial Stored Volume ....         0.076         0.761
  Final Stored Volume ......         0.648         6.483
  Continuity Error (%) .....        -2.022
  
  
  **************************           COD            SS            TN            TP         NH4-N
  Quality Routing Continuity            kg            kg            kg            kg            kg
  **************************    ----------    ----------    ----------    ----------    ----------
  Dry Weather Inflow .......      1541.201      2465.922       147.955        18.494        92.472
  Wet Weather Inflow .......      5552.162     10630.500       107.081         7.410        51.067
  Groundwater Inflow .......         0.000         0.000         0.000         0.000         0.000
  RDII Inflow ..............         0.000         0.000         0.000         0.000         0.000
  External Inflow ..........       183.418       293.469        17.608         2.201        11.005
  External Outflow .........      2690.504      4815.867       144.517        16.441        85.920
  Flooding Loss ............      3896.754      7380.674        99.769         8.732        52.422
  Exfiltration Loss ........         0.000         0.000         0.000         0.000         0.000
  Mass Reacted .............         0.000         0.000         0.000         0.000         0.000
  Initial Stored Mass ......         0.000         0.000         0.000         0.000         0.000
  Final Stored Mass ........       559.579       975.725        24.642         2.615        14.241
  Continuity Error (%) .....         1.786         1.625         1.363         1.128         1.269
  
  
  *************************
  Highest Continuity Errors
  *************************
  Node HS02004842 (10.96%)
  Node JK-storage (-10.36%)
  Node YS02001884 (8.21%)
  Node HS02004817 (2.13%)
  Node YSB1171 (1.97%)
  
  
  ***************************
  Time-Step Critical Elements
  ***************************
  Link WS02006252WS02006251 (69.51%)
  Link WS02006280WS02006229 (11.03%)
  Link YS02001793JiankangQianchi (4.21%)
  Link WS02006238WS02006235 (4.14%)
  Link WS02004404WS02004405 (3.24%)
  
  
  ********************************
  Highest Flow Instability Indexes
  ********************************
  Link WS02006113WS02006111 (34)
  Link WS02006111WS02006112 (23)
  Link YS02163601YS02164001 (21)
  Link YS02001619YS02001622 (21)
  Link YS02163301YS02001633 (20)
  
  
  *************************
  Routing Time Step Summary
  *************************
  Minimum Time Step           :     0.50 sec
  Average Time Step           :     1.08 sec
  Maximum Time Step           :     5.00 sec
  Percent in Steady State     :    -0.00
  Average Iterations per Step :     3.43
  Percent Not Converging      :    10.31
  
  
  ***************************
  Subcatchment Runoff Summary
  ***************************
  
  ------------------------------------------------------------------------------------------------------------------------------
                            Total      Total      Total      Total     Imperv       Perv      Total       Total     Peak  Runoff
                           Precip      Runon       Evap      Infil     Runoff     Runoff     Runoff      Runoff   Runoff   Coeff
  Subcatchment                 mm         mm         mm         mm         mm         mm         mm    10^6 ltr      LPS
  ------------------------------------------------------------------------------------------------------------------------------
  sub0                      16.73       0.00       0.00       0.71      15.51       0.47      15.98        0.01     3.87   0.955
  sub1                      16.73       0.00       0.00       1.18      14.80       0.66      15.46        0.10    26.74   0.924
  sub2                      16.73       0.00       0.00       4.79      10.46       1.40      11.85        0.11    25.81   0.708
  sub3                      16.73       0.00       0.00       5.01      10.42       1.18      11.60        0.26    56.97   0.693
  sub4                      16.73       0.00       0.00       1.28      14.64       0.56      15.20        0.32    66.74   0.909
  sub5                      16.73       0.00       0.00       0.73      15.46       0.44      15.91        0.18    46.91   0.951
  sub7                      16.73       0.00       0.00       0.93      15.16       0.58      15.74        0.05    14.85   0.941
  sub8                      16.73       0.00       0.00       0.94      15.15       0.57      15.72        0.10    27.42   0.940
  sub9                      16.73       0.00       0.00       0.94      15.15       0.57      15.72        0.08    20.52   0.940
  sub10                     16.73       0.00       0.00       0.83      15.30       0.50      15.81        0.17    46.04   0.945
  sub11                     16.73       0.00       0.00       0.83      15.32       0.51      15.83        0.18    50.62   0.947
  sub12                     16.73       0.00       0.00       1.34      14.51       0.83      15.34        0.13    39.22   0.917
  sub14                     16.73       0.00       0.00       0.94      15.15       0.57      15.72        0.15    40.40   0.939
  sub15                     16.73       0.00       0.00       3.54      11.65       1.48      13.13        0.23    57.86   0.785
  sub16                     16.73       0.00       0.00       3.72      11.17       1.80      12.97        0.14    37.34   0.776
  sub17                     16.73       0.00       0.00       3.62      11.33       1.73      13.07        0.11    30.57   0.781
  sub22                     16.73       0.00       0.00       5.27       9.49       1.92      11.42        0.72   183.11   0.683
  sub23                     16.73       0.00       0.00       4.37      10.50       1.82      12.32        0.59   153.57   0.736
  sub60                     16.73       0.00       0.00       1.74      12.78       0.27      13.05        3.96   446.24   0.780
  sub61                     16.73       0.00       0.00       2.46      12.72       0.38      13.11        4.04   542.53   0.784
  sub62                     16.73       0.00       0.00       1.06      13.91       0.27      14.19        4.36   558.01   0.848
  sub63                     16.73       0.00       0.00       4.39      11.06       0.46      11.52        3.49   496.40   0.689
  sub64                     16.73       0.00       0.00       2.23      12.28       0.28      12.56        3.82   424.95   0.751
  sub65                     16.73       0.00       0.00       1.91      12.51       0.27      12.77        3.93   431.32   0.764
  sub66                     16.73       0.00       0.00       4.54      10.46       0.31      10.78        3.31   388.44   0.644
  sub67                     16.73       0.00       0.00       1.01      14.45       0.32      14.78        4.56   675.76   0.883
  sub68                     16.73       0.00       0.00       1.95      13.33       0.39      13.71        4.22   589.75   0.820
  sub69                     16.73       0.00       0.00       2.00      13.62       0.51      14.12        3.30   542.07   0.844
  sub70                     16.73      14.42       0.00       8.47      19.01       2.12      21.13        4.84   534.50   0.678
  sub71                     16.73       0.00       0.00       1.08      13.65       0.25      13.90        3.28   394.68   0.831
  sub72                     16.73       0.00       0.00       1.02      11.50       0.15      11.65        2.37   206.66   0.697
  1                         16.73      20.58       0.00       1.37      22.38       7.20      29.58        6.95   612.18   0.793
  2                         16.73       0.00       0.00       3.02       4.04       3.18       7.22        2.89   331.58   0.431
  
  
  ****************************
  Subcatchment Washoff Summary
  ****************************
  
  ------------------------------------------------------------------------------------------
                                 COD            SS            TN            TP         NH4-N
  Subcatchment                    kg            kg            kg            kg            kg
  ------------------------------------------------------------------------------------------
  sub0                         3.641         7.161         0.064         0.005         0.031
  sub1                        15.670        31.767         0.296         0.021         0.143
  sub2                        10.304        20.454         0.214         0.015         0.099
  sub3                        25.293        49.815         0.517         0.036         0.240
  sub4                        36.168        74.260         0.714         0.044         0.344
  sub5                        35.763        71.366         0.649         0.050         0.316
  sub7                         7.894        16.212         0.150         0.010         0.073
  sub8                        11.755        24.726         0.234         0.014         0.113
  sub9                        10.113        20.966         0.196         0.013         0.095
  sub10                       29.347        59.341         0.545         0.040         0.265
  sub11                       28.395        58.052         0.536         0.037         0.260
  sub12                       24.463        49.072         0.450         0.034         0.218
  sub14                       21.697        44.543         0.414         0.028         0.200
  sub15                       29.696        58.821         0.572         0.042         0.270
  sub16                       19.246        38.050         0.367         0.028         0.174
  sub17                       17.687        34.653         0.330         0.026         0.156
  sub22                       95.915       186.896         1.820         0.139         0.857
  sub23                       54.382       109.539         1.141         0.076         0.527
  sub60                      353.947       679.509         6.988         0.437         3.357
  sub61                      439.695       840.113         8.188         0.570         3.952
  sub62                      449.790       873.119         8.744         0.564         4.209
  sub63                      328.186       618.356         6.505         0.463         3.037
  sub64                      450.924       835.563         8.299         0.611         3.976
  sub65                      460.537       856.688         8.527         0.617         4.090
  sub66                      259.427       485.147         5.248         0.348         2.463
  sub67                      667.181      1281.068        12.075         0.900         5.853
  sub68                      479.473       924.467         9.153         0.628         4.389
  sub69                      429.286       835.450         8.068         0.576         3.873
  sub70                      758.301      1478.311        15.194         1.074         7.173
  sub71                      296.268       580.620         6.027         0.356         2.890
  sub72                      247.759       452.374         4.612         0.320         2.223
  1                          576.917      1130.968        11.723         0.829         5.484
  2                           65.566       118.435         1.802         0.109         0.773
  ------------------------------------------------------------------------------------------
  System                    6740.687     12945.882       130.363         9.060        62.122
  
  
  ******************
  Node Depth Summary
  ******************
  
  ---------------------------------------------------------------------------------
                                 Average  Maximum  Maximum  Time of Max    Reported
                                   Depth    Depth      HGL   Occurrence   Max Depth
  Node                 Type       Meters   Meters   Meters  days hr:min      Meters
  ---------------------------------------------------------------------------------
  WS02001211           JUNCTION     0.78     0.85     5.69     0  02:04        0.85
  WS02001212           JUNCTION     0.49     0.58     5.64     0  02:05        0.58
  WS02001213           JUNCTION     0.74     0.86     5.62     0  02:03        0.86
  WS02003069           JUNCTION     0.55     0.72     5.31     0  02:03        0.72
  WS02003072           JUNCTION     0.61     0.76     5.14     0  02:04        0.76
  WS02003073           JUNCTION     0.37     0.48     4.55     0  02:04        0.48
  WS02003060           JUNCTION     0.48     0.64     5.57     0  02:03        0.64
  WS02003066           JUNCTION     0.27     0.39     5.94     0  01:58        0.39
  WS02003059           JUNCTION     0.79     0.91     5.60     0  02:03        0.91
  WS02003067           JUNCTION     0.64     0.83     6.15     0  01:57        0.83
  WS02004401           JUNCTION     0.79     1.31     7.31     0  01:55        1.26
  WS02004402           JUNCTION     0.81     1.29     7.25     0  01:55        1.25
  WS02004403           JUNCTION     0.83     1.27     7.20     0  01:55        1.22
  WS02004404           JUNCTION     0.90     1.31     7.16     0  01:55        1.25
  WS02004406           JUNCTION     0.89     1.20     7.03     0  01:55        1.17
  WS02004409           JUNCTION     0.60     0.98     6.75     0  01:57        0.98
  WS02004410           JUNCTION     0.61     0.96     6.68     0  01:57        0.96
  WS02004411           JUNCTION     0.62     0.94     6.62     0  01:58        0.94
  WS02004412           JUNCTION     0.63     0.91     6.55     0  01:57        0.91
  WS02004413           JUNCTION     0.79     1.03     6.50     0  01:57        1.03
  WS02004405           JUNCTION     0.89     1.28     7.13     0  01:55        1.23
  WS02006109           JUNCTION     0.89     1.76     8.37     0  01:55        1.75
  WS02006110           JUNCTION     0.85     1.54     8.13     0  01:55        1.52
  WS02006111           JUNCTION     0.29     1.03     7.74     0  01:55        0.94
  WS02006112           JUNCTION     0.98     1.65     7.53     0  01:55        1.60
  WS02006113           JUNCTION     0.41     1.05     7.94     0  01:55        0.99
  WS02006115           JUNCTION     0.69     1.31     7.45     0  01:55        1.26
  WS02006116           JUNCTION     0.77     1.34     7.38     0  01:55        1.29
  WS02006230           JUNCTION     0.94     1.98     8.72     0  01:56        1.97
  WS02006231           JUNCTION     0.67     1.61     8.74     0  01:56        1.61
  WS02006232           JUNCTION     0.82     1.71     8.75     0  01:56        1.69
  WS02006234           JUNCTION     0.78     1.59     8.74     0  01:56        1.59
  WS02006235           JUNCTION     0.83     1.59     8.76     0  01:56        1.59
  WS02006238           JUNCTION     0.85     1.61     8.75     0  01:55        1.59
  WS02006240           JUNCTION     0.76     1.44     8.73     0  01:56        1.44
  WS02006242           JUNCTION     0.82     1.46     8.72     0  01:56        1.45
  WS02006243           JUNCTION     0.71     1.30     8.72     0  01:55        1.29
  WS02006245           JUNCTION     0.69     1.24     8.73     0  01:53        1.21
  WS02006247           JUNCTION     0.70     1.23     8.73     0  01:53        1.19
  WS02006248           JUNCTION     0.64     1.10     8.69     0  01:53        1.10
  WS02006249           JUNCTION     0.65     1.09     8.69     0  01:53        1.09
  WS02006239           JUNCTION     0.82     1.53     8.74     0  01:56        1.53
  WS02006251           JUNCTION     0.63     1.34     9.01     0  01:54        1.17
  WS02006252           JUNCTION     0.40     0.80     9.04     0  03:38        0.71
  WS02006253           JUNCTION     0.66     1.52     9.16     0  01:54        1.21
  WS02006256           JUNCTION     1.82     2.35     9.28     0  00:00        2.35
  WS02004138           JUNCTION     0.19     0.20     7.45     0  00:00        0.19
  WS02004139           JUNCTION     0.73     0.79     5.70     0  02:05        0.79
  WS02004407           JUNCTION     0.26     0.40     6.72     0  01:56        0.40
  WS02006228           JUNCTION     0.92     1.94     8.59     0  01:55        1.93
  WS02006229           JUNCTION     0.91     2.02     8.71     0  01:56        2.01
  WS02006280           JUNCTION     0.07     0.34     8.61     0  01:55        0.32
  WS02006284           JUNCTION     0.37     0.66     9.06     0  01:54        0.66
  WS02006287           JUNCTION     0.10     0.40     9.36     0  01:54        0.40
  WSF200               JUNCTION     0.27     0.44     5.67     0  01:58        0.44
  HS02004901           JUNCTION     0.13     0.38    10.21     0  01:53        0.38
  HS02004881           JUNCTION     0.01     0.06     9.08     0  01:54        0.05
  HS02004876           JUNCTION     0.04     0.17     9.20     0  01:54        0.17
  HS02004870           JUNCTION     0.02     0.10     9.38     0  01:54        0.10
  HS02004862           JUNCTION     0.02     0.11     9.50     0  01:55        0.11
  HS02004856           JUNCTION     0.08     0.15     9.58     0  01:54        0.15
  HS02004852           JUNCTION     0.01     0.08     9.59     0  01:54        0.08
  HS02004848           JUNCTION     0.01     0.07     9.67     0  01:54        0.07
  HS02004842           JUNCTION     0.34     0.40     9.67     0  01:54        0.40
  HS02004837           JUNCTION     0.03     0.09     9.67     0  01:54        0.09
  HS02004830           JUNCTION     0.04     0.11     9.58     0  01:55        0.11
  HS02004824           JUNCTION     0.03     0.15     9.55     0  01:54        0.15
  HS02004817           JUNCTION     0.45     0.71     9.56     0  01:54        0.71
  HS02004807           JUNCTION     0.13     0.38     9.55     0  01:55        0.38
  HS02004802           JUNCTION     0.17     0.41     9.54     0  01:55        0.41
  HS02004799           JUNCTION     0.13     0.48     9.69     0  01:53        0.48
  HS02004792           JUNCTION     0.04     0.22     9.75     0  01:53        0.22
  HS02004788           JUNCTION     0.03     0.16    10.06     0  01:54        0.16
  HS02004785           JUNCTION     0.05     0.25    10.15     0  01:53        0.25
  HS02004777           JUNCTION     0.15     0.40    10.20     0  01:53        0.40
  HS02004770           JUNCTION     0.12     0.37    10.21     0  01:53        0.37
  HS02004480           JUNCTION     0.09     0.39     9.64     0  01:53        0.39
  HS02004479           JUNCTION     0.12     0.43     9.64     0  01:53        0.43
  HS02004478           JUNCTION     0.07     0.29     9.52     0  01:54        0.29
  YS02001745           JUNCTION     0.78     0.95     8.47     0  02:39        0.95
  YS02001748           JUNCTION     1.19     1.38     8.46     0  02:39        1.38
  YS02001751           JUNCTION     1.38     1.57     8.45     0  02:39        1.57
  YS02001754           JUNCTION     1.63     1.84     8.44     0  02:40        1.84
  YS02001762           JUNCTION     1.83     2.07     8.47     0  04:52        2.03
  YS02001765           JUNCTION     1.79     2.03     8.48     0  04:52        1.98
  YS02001767           JUNCTION     1.75     1.98     8.47     0  04:52        1.94
  YS02001770           JUNCTION     1.74     1.94     8.44     0  04:52        1.93
  YS02001774           JUNCTION     1.81     1.99     8.41     0  04:52        1.98
  YS02001779           JUNCTION     1.55     1.68     8.37     0  01:47        1.68
  YS02001882           JUNCTION     0.64     1.67     8.39     0  01:50        1.63
  YS02001884           JUNCTION     0.73     1.76     8.38     0  01:50        1.73
  YS02001759           JUNCTION     1.87     2.09     8.46     0  04:52        2.07
  YS02001887           JUNCTION     0.81     1.82     8.36     0  01:50        1.81
  YS02001890           JUNCTION     0.84     1.81     8.32     0  01:50        1.81
  YS02001898           JUNCTION     0.61     1.57     8.30     0  01:51        1.56
  YS02001901           JUNCTION     0.73     1.68     8.29     0  01:51        1.67
  YS02001904           JUNCTION     0.70     1.64     8.27     0  01:51        1.64
  YS02001907           JUNCTION     1.03     1.96     8.25     0  01:51        1.96
  YS02001910           JUNCTION     0.82     1.96     8.46     0  01:51        1.80
  YS02001915           JUNCTION     0.62     1.90     8.61     0  01:51        1.63
  YS02001918           JUNCTION     0.37     1.79     8.85     0  01:51        1.37
  YS02001619           JUNCTION     1.34     1.55     8.48     0  01:45        1.48
  YS02001629           JUNCTION     1.69     1.85     8.40     0  02:15        1.84
  YS02001641           JUNCTION     1.79     1.94     8.37     0  02:15        1.93
  YS02001644           JUNCTION     1.79     1.92     8.35     0  01:48        1.92
  YS02001652           JUNCTION     1.65     1.90     8.50     0  01:59        1.88
  YS02001655           JUNCTION     1.41     1.73     8.58     0  01:52        1.67
  YS02001920           JUNCTION     0.48     1.95     8.96     0  01:51        1.47
  YS02001923           JUNCTION     0.31     1.98     9.24     0  01:51        1.26
  YS02001926           JUNCTION     0.35     1.57     9.02     0  01:51        1.14
  YS02001929           JUNCTION     0.21     0.97     8.67     0  01:52        0.97
  YS02001658           JUNCTION     1.13     1.51     8.66     0  01:52        1.41
  YS02001661           JUNCTION     0.89     1.39     8.79     0  01:52        1.13
  YS02001664           JUNCTION     0.40     0.57     8.49     0  01:52        0.54
  YS02001622           JUNCTION     1.36     1.55     8.46     0  01:45        1.50
  YS02001633           JUNCTION     1.78     1.95     8.40     0  01:48        1.94
  YS02001649           JUNCTION     1.84     2.04     8.43     0  02:52        2.04
  YS02001757           JUNCTION     1.97     2.17     8.44     0  02:41        2.17
  YS02001895           JUNCTION     0.60     1.57     8.31     0  01:50        1.56
  YS02001625           JUNCTION     1.64     1.78     8.38     0  01:45        1.78
  YS02163301           JUNCTION     1.72     1.89     8.40     0  01:49        1.88
  YS02163601           JUNCTION     1.83     1.99     8.39     0  02:15        1.98
  YS02164001           JUNCTION     1.77     1.92     8.38     0  01:48        1.91
  YS02001647           JUNCTION     1.63     1.79     8.40     0  04:52        1.78
  YSB1154              JUNCTION     0.27     0.58     9.64     0  01:53        0.58
  YSB6556              JUNCTION     0.16     0.47     9.64     0  01:53        0.47
  YSB1174              JUNCTION     0.22     0.53     9.64     0  01:53        0.53
  YSB1171              JUNCTION     0.42     0.74     9.64     0  01:53        0.74
  YS02006553           JUNCTION     1.03     1.97     8.26     0  02:14        1.97
  YS02006561           JUNCTION     0.37     1.12     7.78     0  01:50        1.08
  YS02006556           JUNCTION     1.00     1.94     8.25     0  02:10        1.93
  YS02006558           JUNCTION     1.04     1.98     8.24     0  02:05        1.98
  YS02001783           JUNCTION     0.61     1.62     7.76     0  01:44        1.47
  YS02001784           JUNCTION     0.62     1.46     7.53     0  01:50        1.41
  YS02001786           JUNCTION     0.55     1.37     7.40     0  01:44        1.26
  YS02001788           JUNCTION     0.48     1.28     7.26     0  01:44        1.13
  YS02001790           JUNCTION     0.60     1.96     7.60     0  01:44        1.31
  YS02001791           JUNCTION     0.57     2.72     8.19     0  04:41        1.32
  YS02001793           JUNCTION     0.80     2.86     7.69     0  04:39        1.84
  WSC                  OUTFALL      0.37     0.48     1.15     0  02:05        0.48
  JK-storage           STORAGE      3.03     5.80     6.60     0  01:44        5.80
  CC-storage           STORAGE      1.22     1.43     8.43     0  02:41        1.43
  XR-storage           STORAGE      7.16     7.72     5.72     0  02:07        7.72
  
  
  *******************
  Node Inflow Summary
  *******************
  
  -------------------------------------------------------------------------------------------------
                                  Maximum  Maximum                  Lateral       Total        Flow
                                  Lateral    Total  Time of Max      Inflow      Inflow     Balance
                                   Inflow   Inflow   Occurrence      Volume      Volume       Error
  Node                 Type           LPS      LPS  days hr:min    10^6 ltr    10^6 ltr     Percent
  -------------------------------------------------------------------------------------------------
  WS02001211           JUNCTION      7.35   389.91     0  03:20       0.207        10.3       0.400
  WS02001212           JUNCTION      0.00   392.35     0  03:20           0        10.3       0.244
  WS02001213           JUNCTION      0.00   394.52     0  03:20           0        10.2       0.291
  WS02003069           JUNCTION      0.32  1338.84     0  02:03     0.00902        22.3       0.177
  WS02003072           JUNCTION      0.00  1338.82     0  02:04           0        22.3       0.207
  WS02003073           JUNCTION      1.82  1340.92     0  02:04      0.0514        22.3       0.242
  WS02003060           JUNCTION     16.53  1338.20     0  02:02       0.466        22.4       0.165
  WS02003066           JUNCTION      0.00   954.62     0  01:58           0        11.7       0.046
  WS02003059           JUNCTION      0.00   397.51     0  03:19           0        10.2       0.410
  WS02003067           JUNCTION      0.00   953.85     0  01:58           0        11.7       0.092
  WS02004401           JUNCTION      0.00   968.21     0  01:56           0          12       0.204
  WS02004402           JUNCTION      0.00   968.48     0  01:56           0          12       0.190
  WS02004403           JUNCTION      0.00   968.84     0  01:56           0          12       0.170
  WS02004404           JUNCTION      0.16   969.51     0  01:56     0.00457        11.9       0.126
  WS02004406           JUNCTION      0.00   969.84     0  01:56           0        11.9       0.306
  WS02004409           JUNCTION      0.00   968.24     0  01:56           0        11.9       0.176
  WS02004410           JUNCTION      0.00   956.88     0  01:57           0        11.8       0.194
  WS02004411           JUNCTION      0.00   952.31     0  01:58           0        11.8       0.195
  WS02004412           JUNCTION      0.00   953.80     0  01:58           0        11.8       0.205
  WS02004413           JUNCTION      0.00   953.87     0  01:58           0        11.8       0.296
  WS02004405           JUNCTION      0.04   969.78     0  01:56     0.00107        11.9       0.186
  WS02006109           JUNCTION      1.23   938.16     0  01:56      0.0347          12       0.171
  WS02006110           JUNCTION      0.00   938.44     0  01:56           0          12       0.176
  WS02006111           JUNCTION      0.00   937.98     0  01:56           0          12       0.041
  WS02006112           JUNCTION     30.57   966.84     0  01:56       0.112        12.1       0.274
  WS02006113           JUNCTION      0.00   938.26     0  01:56           0          12       0.107
  WS02006115           JUNCTION      0.00   966.96     0  01:56           0        12.1       0.205
  WS02006116           JUNCTION      0.00   967.85     0  01:56           0          12       0.177
  WS02006230           JUNCTION     10.28   533.28     0  06:53        0.29        8.95       0.193
  WS02006231           JUNCTION      0.00   523.10     0  06:53           0        8.67       0.140
  WS02006232           JUNCTION      0.00   523.47     0  06:53           0        8.68       0.209
  WS02006234           JUNCTION      0.00   523.48     0  06:53           0        8.69       0.128
  WS02006235           JUNCTION      0.00   525.64     0  06:53           0        8.76       0.127
  WS02006238           JUNCTION      0.00   418.20     0  04:30           0        5.39       0.124
  WS02006240           JUNCTION      0.00   417.68     0  04:30           0        5.38       0.303
  WS02006242           JUNCTION      0.00   417.25     0  04:30           0        5.38       0.348
  WS02006243           JUNCTION      0.00   416.88     0  04:30           0        5.38       0.305
  WS02006245           JUNCTION      0.00   416.39     0  04:30           0        5.39       0.271
  WS02006247           JUNCTION      0.00   416.60     0  07:40           0        5.39       0.213
  WS02006248           JUNCTION      0.00   417.37     0  07:40           0         5.4       0.162
  WS02006249           JUNCTION      0.00   451.99     0  03:00           0        5.88       0.264
  WS02006239           JUNCTION      0.00   418.24     0  04:30           0        5.38       0.206
  WS02006251           JUNCTION      0.08   450.71     0  03:00     0.00217        5.95       0.283
  WS02006252           JUNCTION      0.00   400.00     0  03:40           0        5.28       0.010
  WS02006253           JUNCTION      3.87   191.58     0  01:54      0.0129       0.672       1.861
  WS02006256           JUNCTION      0.00   983.00     0  02:00           0        11.8      -0.009
  WS02004138           JUNCTION      0.00   380.00     0  00:00           0        10.1       0.062
  WS02004139           JUNCTION      0.32   395.85     0  00:00     0.00905        10.1       0.456
  WS02004407           JUNCTION      0.00   970.43     0  01:56           0        11.9       0.078
  WS02006228           JUNCTION      0.00   937.33     0  01:56           0          12       0.136
  WS02006229           JUNCTION      0.00   989.86     0  01:55           0          12       0.129
  WS02006280           JUNCTION      0.00   736.05     0  01:54           0        3.11       0.015
  WS02006284           JUNCTION      0.10   735.80     0  01:54      0.0027        3.11       0.019
  WS02006287           JUNCTION      0.00   735.62     0  01:54           0        3.11       0.024
  WSF200               JUNCTION      0.00   955.12     0  01:58           0        11.7       0.047
  HS02004901           JUNCTION     37.34    37.34     0  01:51       0.136       0.136       1.311
  HS02004881           JUNCTION     14.85   153.29     0  01:54       0.053       0.601       0.110
  HS02004876           JUNCTION     26.74   139.06     0  01:54       0.103       0.549       0.099
  HS02004870           JUNCTION     27.42   112.65     0  01:54         0.1       0.446       0.025
  HS02004862           JUNCTION     26.01    86.18     0  01:54       0.116       0.346       0.050
  HS02004856           JUNCTION     20.52    60.23     0  01:54      0.0756       0.231       0.629
  HS02004852           JUNCTION      0.00    40.37     0  01:54           0       0.155       0.036
  HS02004848           JUNCTION     56.97    56.97     0  01:56       0.261       0.261       0.019
  HS02004842           JUNCTION      0.00    18.18     0  02:06           0       0.119      12.305
  HS02004837           JUNCTION     52.39    67.87     0  01:54       0.353       0.459       0.177
  HS02004830           JUNCTION      0.15    67.98     0  01:54     0.00423       0.449       0.275
  HS02004824           JUNCTION     66.79   134.67     0  01:56       0.318       0.767       0.071
  HS02004817           JUNCTION      0.60   136.93     0  01:57      0.0169       0.783       2.175
  HS02004807           JUNCTION     50.62   184.19     0  01:55       0.184       0.952       0.460
  HS02004802           JUNCTION      0.00   183.92     0  01:56           0        0.95       0.417
  HS02004799           JUNCTION     40.40   470.73     0  01:53        0.15        1.87       0.159
  HS02004792           JUNCTION    183.39   430.97     0  01:53       0.729        1.72       0.024
  HS02004788           JUNCTION     59.53   248.79     0  01:53       0.273       0.991       0.039
  HS02004785           JUNCTION      0.15   189.55     0  01:53     0.00423        0.72       0.070
  HS02004777           JUNCTION      0.03   189.70     0  01:52    0.000846        0.72       0.728
  HS02004770           JUNCTION    153.57   190.36     0  01:52       0.587       0.722       0.429
  HS02004480           JUNCTION      0.00   554.33     0  01:53           0        2.18       0.044
  HS02004479           JUNCTION      0.00    83.75     0  01:53           0       0.323       0.229
  HS02004478           JUNCTION      0.00   735.57     0  01:54           0        3.11       0.010
  YS02001745           JUNCTION    446.25   446.25     0  02:16        3.95        3.95       0.258
  YS02001748           JUNCTION      0.04   451.12     0  02:16     0.00127        3.95       0.580
  YS02001751           JUNCTION      0.01   450.90     0  02:16     0.00031        3.92       0.607
  YS02001754           JUNCTION      0.26   450.80     0  02:16     0.00733        3.91       0.631
  YS02001762           JUNCTION      0.00   433.18     0  01:55           0        2.54       0.837
  YS02001765           JUNCTION      0.00   433.21     0  01:55           0        2.54       0.960
  YS02001767           JUNCTION      0.54   433.81     0  01:55      0.0151        2.56       1.404
  YS02001770           JUNCTION    558.16   716.30     0  02:40        4.36        5.28       0.589
  YS02001774           JUNCTION      0.00   716.30     0  02:40           0        3.62       0.690
  YS02001779           JUNCTION      0.01   716.30     0  02:40    0.000141        3.59       0.431
  YS02001882           JUNCTION      0.00    60.44     0  01:48           0      0.0382       5.753
  YS02001884           JUNCTION      0.00    66.31     0  01:46           0      0.0761       8.941
  YS02001759           JUNCTION    542.57   877.70     0  01:57        4.04        5.64       0.404
  YS02001887           JUNCTION    676.21   677.00     0  02:13        4.57         4.6       0.190
  YS02001890           JUNCTION      0.00   677.36     0  02:13           0        4.56       0.204
  YS02001898           JUNCTION      0.00   523.23     0  01:51           0        4.27       0.073
  YS02001901           JUNCTION      0.00   524.81     0  01:51           0        4.27       0.161
  YS02001904           JUNCTION      0.00   525.12     0  01:51           0        4.26       0.146
  YS02001907           JUNCTION      0.00  1167.88     0  01:52           0        9.98       0.236
  YS02001910           JUNCTION      0.00   653.58     0  01:52           0        5.74       0.217
  YS02001915           JUNCTION    394.70   653.72     0  01:52        3.28        5.79       0.098
  YS02001918           JUNCTION      0.00   373.43     0  01:52           0        2.54       0.055
  YS02001619           JUNCTION    388.44   388.44     0  02:16         3.3         3.3       0.372
  YS02001629           JUNCTION      0.00   220.11     0  01:48           0        1.43       2.045
  YS02001641           JUNCTION      0.00   455.69     0  01:47           0         5.1       0.409
  YS02001644           JUNCTION    424.99  1552.56     0  02:39        3.82        13.3       0.195
  YS02001652           JUNCTION      0.00   515.11     0  02:11           0        3.44       0.675
  YS02001655           JUNCTION      0.15   514.63     0  02:12     0.00434        3.46       0.727
  YS02001920           JUNCTION      2.87   372.50     0  01:52      0.0809        2.52       0.115
  YS02001923           JUNCTION      0.04   311.32     0  01:53     0.00106        2.42       0.050
  YS02001926           JUNCTION      0.05   328.50     0  01:50     0.00147        2.39       0.129
  YS02001929           JUNCTION    206.66   206.66     0  03:01        2.37        2.38       0.026
  YS02001658           JUNCTION      0.00   514.15     0  02:12           0        3.48       0.684
  YS02001661           JUNCTION      0.00   759.88     0  01:52           0        3.84      -0.001
  YS02001664           JUNCTION    496.40   496.40     0  02:16        3.49        3.85       0.119
  YS02001622           JUNCTION      0.00   389.24     0  02:16           0        3.29       0.965
  YS02001633           JUNCTION    431.52   456.24     0  01:48        3.93        5.24       0.612
  YS02001649           JUNCTION      0.00  1000.96     0  01:49           0        6.77       0.547
  YS02001757           JUNCTION      0.00  2145.06     0  01:55           0        10.9       0.842
  YS02001895           JUNCTION      0.00   522.54     0  01:51           0        4.27       0.119
  YS02001625           JUNCTION      0.00   434.90     0  02:16           0        3.34       1.187
  YS02163301           JUNCTION      0.00   221.12     0  01:47           0        1.42       1.694
  YS02163601           JUNCTION      0.11   456.13     0  01:48      0.0031        5.11       0.587
  YS02164001           JUNCTION      0.00   455.81     0  01:48           0        5.09       0.392
  YS02001647           JUNCTION      0.00   787.77     0  02:41           0         5.8       0.488
  YSB1154              JUNCTION     46.91    46.91     0  01:52        0.18       0.181       0.806
  YSB6556              JUNCTION      0.00    46.63     0  01:52           0       0.182       0.696
  YSB1174              JUNCTION     39.22    39.22     0  01:50       0.134       0.134       0.962
  YSB1171              JUNCTION      0.00    84.02     0  01:52           0       0.322       2.011
  YS02006553           JUNCTION      0.00   717.80     0  03:35           0        7.29       0.208
  YS02006561           JUNCTION      0.00   982.69     0  02:12           0        11.5       0.006
  YS02006556           JUNCTION      0.00   717.85     0  03:35           0        7.29       0.148
  YS02006558           JUNCTION    590.63   983.63     0  02:10        4.24        11.5       0.043
  YS02001783           JUNCTION      0.00   983.02     0  02:15           0        11.5       0.020
  YS02001784           JUNCTION      1.06   983.70     0  02:14      0.0299        11.5       0.033
  YS02001786           JUNCTION      0.06   983.70     0  02:12     0.00159        11.5       0.030
  YS02001788           JUNCTION      0.07   983.97     0  02:11       0.002        11.5       0.018
  YS02001790           JUNCTION      0.15   983.93     0  02:15     0.00437        11.5       0.018
  YS02001791           JUNCTION      0.00   984.00     0  02:12           0        11.5       0.005
  YS02001793           JUNCTION      0.00   984.44     0  02:12           0        11.5      -0.014
  WSC                  OUTFALL       0.00  1341.28     0  02:05           0        22.2       0.000
  JK-storage           STORAGE       0.00   984.25     0  02:14           0        11.6      -9.390
  CC-storage           STORAGE       0.00  2147.74     0  01:55           0         8.8       0.706
  XR-storage           STORAGE    1054.62  1054.62     0  03:01        15.5        16.1      -0.006
  
  
  **********************
  Node Surcharge Summary
  **********************
  
  Surcharging occurs when water rises above the top of the highest conduit.
  ---------------------------------------------------------------------
                                               Max. Height   Min. Depth
                                   Hours       Above Crown    Below Rim
  Node                 Type      Surcharged         Meters       Meters
  ---------------------------------------------------------------------
  WS02004401           JUNCTION        1.31          0.306        1.354
  WS02004402           JUNCTION        1.33          0.293        1.447
  WS02004403           JUNCTION        1.34          0.266        1.764
  WS02004404           JUNCTION        1.45          0.312        2.468
  WS02004406           JUNCTION        1.41          0.202        2.248
  WS02004413           JUNCTION        0.41          0.031        2.169
  WS02004405           JUNCTION        1.43          0.280        2.520
  WS02006109           JUNCTION        5.02          0.936        0.884
  WS02006110           JUNCTION        2.73          0.635        1.215
  WS02006111           JUNCTION        0.29          0.220        1.650
  WS02006112           JUNCTION        3.15          0.648        1.032
  WS02006113           JUNCTION        0.34          0.248        1.682
  WS02006115           JUNCTION        0.71          0.299        1.951
  WS02006116           JUNCTION        0.76          0.281        2.009
  WS02006230           JUNCTION        2.49          0.898        0.672
  WS02006231           JUNCTION        3.04          0.903        0.627
  WS02006232           JUNCTION        4.95          1.007        0.473
  WS02006234           JUNCTION        4.48          0.868        0.372
  WS02006235           JUNCTION        4.68          0.883        0.407
  WS02006238           JUNCTION        4.77          0.889        0.541
  WS02006240           JUNCTION        4.50          0.729        0.661
  WS02006242           JUNCTION        4.62          0.725        0.095
  WS02006243           JUNCTION        3.73          0.586        0.184
  WS02006245           JUNCTION        3.47          0.535        0.315
  WS02006247           JUNCTION        3.50          0.520        0.240
  WS02006248           JUNCTION        3.15          0.380        0.000
  WS02006249           JUNCTION        3.22          0.390        0.000
  WS02006239           JUNCTION        4.56          0.794        0.496
  WS02006251           JUNCTION        1.83          0.309        0.871
  WS02006252           JUNCTION        3.82          0.397        0.703
  WS02006253           JUNCTION        2.10          0.477        2.003
  WS02006256           JUNCTION        6.97          2.050        0.000
  WS02006228           JUNCTION        5.00          1.108        1.092
  HS02004817           JUNCTION        0.14          0.011        1.729
  YS02001748           JUNCTION        6.04          0.304        0.886
  YS02001751           JUNCTION        6.08          0.574        0.626
  YS02001754           JUNCTION        6.14          0.787        0.363
  YS02001762           JUNCTION        6.19          1.075        0.075
  YS02001765           JUNCTION        6.18          1.028        0.072
  YS02001767           JUNCTION        6.18          0.978        0.052
  YS02001770           JUNCTION        6.18          0.911        0.009
  YS02001774           JUNCTION        6.19          0.991        0.059
  YS02001779           JUNCTION        6.13          0.680        0.000
  YS02001882           JUNCTION        1.80          0.672        0.158
  YS02001884           JUNCTION        1.82          0.701        0.169
  YS02001759           JUNCTION        6.20          1.094        0.116
  YS02001887           JUNCTION        1.87          0.772        0.178
  YS02001890           JUNCTION        1.90          0.760        0.000
  YS02001898           JUNCTION        1.78          0.539        0.201
  YS02001901           JUNCTION        1.85          0.679        0.191
  YS02001904           JUNCTION        1.84          0.639        0.211
  YS02001907           JUNCTION        2.40          0.950        0.000
  YS02001910           JUNCTION        1.93          0.957        0.143
  YS02001915           JUNCTION        1.80          0.896        0.104
  YS02001918           JUNCTION        1.65          0.789        0.021
  YS02001619           JUNCTION        6.09          0.553        0.057
  YS02001629           JUNCTION        6.09          0.466        0.004
  YS02001641           JUNCTION        6.18          0.936        0.164
  YS02001644           JUNCTION        6.18          0.920        0.000
  YS02001652           JUNCTION        6.15          0.871        0.259
  YS02001655           JUNCTION        6.10          0.729        0.471
  YS02001920           JUNCTION        1.68          0.949        0.191
  YS02001923           JUNCTION        0.01          0.771        0.049
  YS02001926           JUNCTION        0.01          0.572        0.328
  YS02001658           JUNCTION        6.05          0.515        0.785
  YS02001661           JUNCTION        0.06          0.316        1.074
  YS02001622           JUNCTION        6.10          0.553        0.067
  YS02001633           JUNCTION        6.17          0.929        0.131
  YS02001649           JUNCTION        6.19          1.041        0.009
  YS02001757           JUNCTION        6.23          1.175        0.035
  YS02001895           JUNCTION        1.79          0.566        0.184
  YS02001625           JUNCTION        6.16          0.780        0.000
  YS02163301           JUNCTION        6.17          0.886        0.144
  YS02163601           JUNCTION        6.20          0.991        0.089
  YS02164001           JUNCTION        6.17          0.923        0.177
  YS02001647           JUNCTION        6.15          0.786        0.114
  YS02006553           JUNCTION        2.46          0.972        0.218
  YS02006561           JUNCTION        1.69          0.317        0.833
  YS02006556           JUNCTION        2.11          0.896        0.454
  YS02006558           JUNCTION        2.08          0.878        0.522
  YS02001783           JUNCTION        1.94          0.819        0.781
  YS02001784           JUNCTION        1.92          0.663        0.827
  YS02001786           JUNCTION        1.86          0.565        0.865
  YS02001788           JUNCTION        1.81          0.478        1.002
  YS02001790           JUNCTION        2.65          1.157        0.000
  YS02001791           JUNCTION        2.74          1.920        0.000
  YS02001793           JUNCTION        3.00          1.863        0.737
  
  
  *********************
  Node Flooding Summary
  *********************
  
  Flooding refers to all water that overflows a node, whether it ponds or not.
  --------------------------------------------------------------------------
                                                             Total   Maximum
                                 Maximum   Time of Max       Flood    Ponded
                        Hours       Rate    Occurrence      Volume     Depth
  Node                 Flooded       LPS   days hr:min    10^6 ltr    Meters
  --------------------------------------------------------------------------
  WS02006248              0.17     58.55      0  01:57       0.013     0.000
  WS02006249              1.89    180.79      0  03:00       0.462     0.000
  WS02006256              4.51    829.32      0  02:00       8.407     0.000
  YS02001779              3.29    716.30      0  02:40       3.570     0.000
  YS02001890              0.81    161.84      0  02:13       0.274     0.000
  YS02001907              1.53    715.89      0  02:16       2.681     0.000
  YS02001644              5.03   1552.56      0  02:39      11.858     0.000
  YS02001625              2.13    434.85      0  02:16       1.966     0.000
  YS02001790              0.01    260.66      0  01:44       0.000     0.000
  YS02001791              0.01    189.76      0  04:41       0.000     0.000
  JK-storage              0.85    862.34      0  01:49       0.959     0.000
  XR-storage              4.67    674.59      0  03:01       5.098     0.000
  
  
  **********************
  Storage Volume Summary
  **********************
  
  --------------------------------------------------------------------------------------------------
                         Average     Avg  Evap Exfil       Maximum     Max    Time of Max    Maximum
                          Volume    Pcnt  Pcnt  Pcnt        Volume    Pcnt     Occurrence    Outflow
  Storage Unit           1000 m3    Full  Loss  Loss       1000 m3    Full    days hr:min        LPS
  --------------------------------------------------------------------------------------------------
  JK-storage               0.152      52     0     0         0.291     100       0  01:44     983.00
  CC-storage               3.396      22     0     0         3.991      25       0  02:41     400.00
  XR-storage               0.860      93     0     0         0.926     100       0  02:07     380.00
  
  
  ***********************
  Outfall Loading Summary
  ***********************
  
  ---------------------------------------------------------------------------------------------------------------------------------
                         Flow       Avg       Max       Total         Total         Total         Total         Total         Total
                         Freq      Flow      Flow      Volume           COD            SS            TN            TP         NH4-N
  Outfall Node           Pcnt       LPS       LPS    10^6 ltr            kg            kg            kg            kg            kg
  ---------------------------------------------------------------------------------------------------------------------------------
  WSC                   99.98    858.80   1341.28      22.237      2690.653      4816.133       144.525        16.442        85.925
  ---------------------------------------------------------------------------------------------------------------------------------
  System                99.98    858.80   1341.28      22.237      2690.653      4816.133       144.525        16.442        85.925
  
  
  ********************
  Link Flow Summary
  ********************
  
  -----------------------------------------------------------------------------
                                 Maximum  Time of Max   Maximum    Max/    Max/
                                  |Flow|   Occurrence   |Veloc|    Full    Full
  Link                 Type          LPS  days hr:min     m/sec    Flow   Depth
  -----------------------------------------------------------------------------
  WS02003066WSF200     CONDUIT    955.12     0  01:58      3.01    0.16    0.32
  WS02006287WS02006284 CONDUIT    735.71     0  01:54      2.45    0.34    0.41
  WS02006284WS02006280 CONDUIT    736.05     0  01:54      2.68    0.31    0.38
  WS02006280WS02006229 CONDUIT    758.44     0  01:55      4.30    0.16    0.58
  WS02006229WS02006228 CONDUIT    937.33     0  01:56      1.86    3.10    1.00
  WS02006256WS02006235 CONDUIT    288.92     0  00:00      4.23    3.06    1.00
  WS02006253WS02006251 CONDUIT    191.21     0  01:54      0.76    0.57    1.00
  WS02006252WS02006251 CONDUIT    404.05     0  06:52      3.22    1.48    1.00
  WS02006251WS02006249 CONDUIT    451.99     0  03:00      1.17    1.30    1.00
  WS02006249WS02006248 CONDUIT    417.37     0  07:40      1.19    2.29    1.00
  WS02006248WS02006247 CONDUIT    416.60     0  07:40      1.16    0.91    1.00
  WS02006247WS02006245 CONDUIT    416.39     0  04:30      1.14    3.30    1.00
  WS02006245WS02006243 CONDUIT    416.88     0  04:30      1.18    1.23    1.00
  WS02006243WS02006242 CONDUIT    417.25     0  04:30      1.08    0.89    1.00
  WS02006242WS02006240 CONDUIT    417.68     0  04:30      1.09    1.66    1.00
  WS02006240WS02006239 CONDUIT    418.24     0  04:30      1.09    1.32    1.00
  WS02006239WS02006238 CONDUIT    418.20     0  04:30      1.09    1.34    1.00
  WS02006238WS02006235 CONDUIT    418.37     0  07:40      1.45    0.93    1.00
  WS02006235WS02006234 CONDUIT    523.48     0  06:53      1.36    5.52    1.00
  WS02006234WS02006232 CONDUIT    523.47     0  06:53      1.39    1.06    1.00
  WS02006232WS02006231 CONDUIT    523.10     0  06:53      1.36    1.10    1.00
  WS02006231WS02006230 CONDUIT    523.00     0  06:53      1.36    7.93    1.00
  WS02006230WS02006229 CONDUIT    536.21     0  06:53      1.39   11.93    1.00
  WS02006228WS02006109 CONDUIT    936.93     0  01:56      1.86    4.09    1.00
  WS02006116WS02004401 CONDUIT    968.21     0  01:56      1.23    1.33    1.00
  WS02006115WS02006116 CONDUIT    967.85     0  01:56      1.23    1.24    1.00
  WS02006113WS02006111 CONDUIT    937.98     0  01:56      2.60    1.12    1.00
  WS02006112WS02006115 CONDUIT    966.96     0  01:56      1.23    0.57    1.00
  WS02006111WS02006112 CONDUIT    938.10     0  01:56      1.87    0.45    1.00
  WS02006110WS02006113 CONDUIT    938.26     0  01:56      1.87    0.85    1.00
  WS02006109WS02006110 CONDUIT    938.44     0  01:56      1.87    1.80    1.00
  WS02004411WS02004412 CONDUIT    953.80     0  01:58      1.26    1.35    0.93
  WS02004401WS02004402 CONDUIT    968.48     0  01:56      1.23    1.16    1.00
  WS02004413WS02003067 CONDUIT    953.85     0  01:58      1.57    0.41    0.72
  WS02004412WS02004413 CONDUIT    953.87     0  01:58      1.23    0.64    0.96
  WS02004410WS02004411 CONDUIT    952.31     0  01:58      1.24    1.30    0.95
  WS02004409WS02004410 CONDUIT    956.88     0  01:57      1.24    1.24    0.97
  WS02004407WS02004409 CONDUIT    968.24     0  01:56      1.73    0.34    0.69
  WS02004406WS02004407 CONDUIT    970.43     0  01:56      1.65    0.43    0.70
  WS02004405WS02004406 CONDUIT    969.84     0  01:56      1.23    1.91    1.00
  WS02004404WS02004405 CONDUIT    969.74     0  01:56      1.23    9.50    1.00
  WS02004403WS02004404 CONDUIT    969.35     0  01:56      1.23    0.70    1.00
  WS02004402WS02004403 CONDUIT    968.84     0  01:56      1.23    1.39    1.00
  WS02004139WS02001211 CONDUIT    382.56     0  03:20      0.90    0.48    0.64
  WS02004138WS02004139 CONDUIT    395.52     0  00:00      3.64    0.08    0.47
  WS02003067WS02003066 CONDUIT    954.62     0  01:58      1.66    0.31    0.51
  WS02001213WS02003059 CONDUIT    397.51     0  03:19      0.89    0.66    0.87
  WS02001212WS02001213 CONDUIT    394.52     0  03:20      1.32    0.61    0.56
  WS02001211WS02001212 CONDUIT    392.35     0  03:20      0.78    0.30    0.71
  WS02003072WS02003073 CONDUIT   1339.10     0  02:04      1.96    2.89    0.58
  WS02003069WS02003072 CONDUIT   1338.82     0  02:04      1.82    0.64    0.62
  WS02003060WS02003069 CONDUIT   1338.52     0  02:03      2.03    0.52    0.57
  WS02003059WS02003060 CONDUIT    401.54     0  03:19      0.95    0.26    0.77
  HS02004901HS02004770 CONDUIT     36.83     0  01:52      0.10    0.14    0.54
  HS02004876HS02004881 CONDUIT    139.06     0  01:54      1.26    1.48    0.16
  HS02004870HS02004876 CONDUIT    112.62     0  01:54      0.85    0.07    0.19
  HS02004842HS02004848 CONDUIT     18.18     0  02:06      0.08    0.01    0.34
  HS02004837HS02004842 CONDUIT     18.64     0  02:06      0.42    0.01    0.35
  HS02004830HS02004837 CONDUIT     67.83     0  01:54      0.68    0.07    0.14
  HS02004824HS02004830 CONDUIT     68.05     0  01:56      0.62    0.09    0.18
  HS02004817HS02004824 CONDUIT    136.33     0  01:57      0.32    0.06    0.60
  HS02004770HS02004777 CONDUIT    189.67     0  01:52      0.49    0.35    0.55
  HS02004799HS02004480 CONDUIT    470.62     0  01:53      1.09    0.59    0.62
  HS02004792HS02004799 CONDUIT    430.86     0  01:53      1.22    0.26    0.50
  HS02004788HS02004792 CONDUIT    248.72     0  01:54      1.29    0.16    0.28
  HS02004785HS02004788 CONDUIT    189.52     0  01:53      0.92    1.43    0.30
  HS02004777HS02004785 CONDUIT    189.40     0  01:53      0.59    0.23    0.46
  HS02004480HS02004478 CONDUIT    554.36     0  01:53      1.59    2.33    0.50
  HS02004479HS02004480 CONDUIT     83.72     0  01:53      0.37    0.08    0.59
  HS02004862HS02004870 CONDUIT     86.17     0  01:55      0.82    0.09    0.15
  HS02004848HS02004852 CONDUIT     40.37     0  01:54      0.54    0.05    0.11
  HS02004856HS02004862 CONDUIT     60.18     0  01:54      0.61    0.06    0.14
  HS02004852HS02004856 CONDUIT     40.43     0  01:55      0.35    0.05    0.17
  HS02004802HS02004478 CONDUIT    184.72     0  01:57      0.53    0.16    0.50
  HS02004478WS02006287 CONDUIT    735.62     0  01:54      2.18    0.21    0.38
  HS02004817HS02004807 CONDUIT    137.15     0  01:57      0.26    0.08    0.77
  HS02004807HS02004802 CONDUIT    183.92     0  01:56      0.47    0.35    0.56
  YS02001759YS02001757 CONDUIT    876.73     0  01:56      1.12    0.62    1.00
  YS02001762YS02001759 CONDUIT    432.59     0  01:55      0.55    0.50    1.00
  YS02001765YS02001762 CONDUIT    433.18     0  01:55      0.55    0.41    1.00
  YS02001770YS02001767 CONDUIT    433.27     0  01:55      0.55    1.72    1.00
  YS02001774YS02001770 CONDUIT    716.30     0  02:40      0.91    0.46    1.00
  YS02001779YS02001774 CONDUIT    716.30     0  02:40      0.91    0.36    1.00
  YS02001649YS02001757 CONDUIT   1001.15     0  01:52      1.27    0.61    1.00
  YS02001767YS02001765 CONDUIT    433.21     0  01:55      0.55    0.54    1.00
  YS02006561YS02001783 CONDUIT    983.02     0  02:15      2.15    0.51    1.00
  YS02001783YS02001784 CONDUIT    982.64     0  02:14      1.95    1.35    1.00
  YS02001784YS02001785 CONDUIT    983.64     0  02:12      1.96    2.29    1.00
  YS02001788YS02001790 CONDUIT    983.77     0  02:15      2.44    0.73    1.00
  YS02001790YS02001791 CONDUIT    984.00     0  02:12      2.91    1.07    1.00
  YS02001791YS02001793 CONDUIT    984.44     0  02:12      5.75    0.42    1.00
  YS02001910YS02001907 CONDUIT    654.35     0  01:52      0.83    0.37    1.00
  YS02001786YS02001788 CONDUIT    983.90     0  02:11      2.31    1.90    1.00
  YS02001915YS02001910 CONDUIT    653.58     0  01:52      0.83    0.32    1.00
  YS02001918YS02001915 CONDUIT    373.92     0  01:52      0.48    0.21    1.00
  YS02001923YS02001920 CONDUIT    369.63     0  01:52      0.82    0.17    1.00
  YS02001926YS02001923 CONDUIT    311.29     0  01:53      0.92    0.44    1.00
  YS02001929YS02001926 CONDUIT    260.16     0  01:52      0.98    0.12    0.99
  YS02001920YS02001918 CONDUIT    373.43     0  01:52      0.77    0.36    1.00
  YS02001629YS02163301 CONDUIT    221.12     0  01:47      0.28    0.27    1.00
  YS02001619YS02001622 CONDUIT    389.24     0  02:16      0.74    0.57    1.00
  YS02001622YS02001625 CONDUIT    388.62     0  02:15      0.49    0.21    1.00
  YS02001625YS02001629 CONDUIT    220.11     0  01:48      0.29    0.10    1.00
  YS02163301YS02001633 CONDUIT    223.10     0  01:47      0.28    0.21    1.00
  YS02163601YS02164001 CONDUIT    455.81     0  01:48      0.58    0.40    1.00
  YS02164001YS02001641 CONDUIT    455.69     0  01:47      0.58    0.62    1.00
  YS02001641YS02001644 CONDUIT    455.87     0  01:47      0.58    1.47    1.00
  YS02001647YS02001649 CONDUIT    787.77     0  02:41      1.00    0.42    1.00
  YS02006553YS02006556 CONDUIT    717.85     0  03:35      0.91    0.61    1.00
  YS02006556YS02006558 CONDUIT    717.96     0  03:35      0.91    0.57    1.00
  YSB6556YSB1171       CONDUIT     46.63     0  01:54      0.14    0.05    0.84
  YS02001907YS02006553 CONDUIT    717.80     0  03:35      0.80    0.84    1.00
  YS02006558YS02006561 CONDUIT    982.69     0  02:12      3.48    2.17    1.00
  YS02001633YS02163601 CONDUIT    456.02     0  01:48      0.58    0.48    1.00
  YS02001644YS02001647 CONDUIT    787.77     0  02:41      1.00    0.46    1.00
  YS02001745YS02001748 CONDUIT    451.08     0  02:16      1.67    0.17    0.98
  YS02001748YS02001751 CONDUIT    450.89     0  02:16      1.21    0.23    1.00
  YS02001751YS02001754 CONDUIT    450.54     0  02:16      1.02    0.22    1.00
  YS02001754YS02001757 CONDUIT    450.34     0  02:16      0.57    0.18    1.00
  YS02001882YS02001884 CONDUIT     60.44     0  01:48      0.16    0.07    1.00
  YS02001884YS02001887 CONDUIT     66.31     0  01:46      0.12    0.09    1.00
  YS02001890YS02001895 CONDUIT    522.54     0  01:51      0.67    0.24    1.00
  YS02001895YS02001898 CONDUIT    523.23     0  01:51      0.67    0.91    1.00
  YS02001898YS02001901 CONDUIT    524.81     0  01:51      0.67    0.34    1.00
  YS02001901YS02001904 CONDUIT    525.12     0  01:51      0.67    0.81    1.00
  YS02001904YS02001907 CONDUIT    525.02     0  01:51      0.67    0.18    1.00
  YS02001887YS02001890 CONDUIT    677.36     0  02:13      0.86    1.16    1.00
  YS02001652YS02001649 CONDUIT    516.28     0  02:09      0.71    0.26    1.00
  YS02001655YS02001652 CONDUIT    515.11     0  02:11      1.09    0.25    1.00
  YS02001658YS02001655 CONDUIT    514.48     0  02:12      1.41    0.22    1.00
  YS02001661YS02001658 CONDUIT    514.15     0  02:12      1.78    0.20    1.00
  YS02001664YS02001661 CONDUIT    759.88     0  01:52      1.69    0.24    0.76
  YSB1154YSB6556       CONDUIT     46.63     0  01:52      0.16    0.08    0.75
  YSB1174YSB1171       CONDUIT     38.39     0  01:50      0.11    0.06    0.87
  YSB1171HS02004479    CONDUIT     83.75     0  01:53      0.54    0.06    0.70
  HS02004881HS02006253 CONDUIT    157.56     0  01:54      2.75    0.03    0.54
  YS02001793JiankangQianchi CONDUIT    984.25     0  02:14     16.46    0.08    1.00
  YS02001757CaochengTiaoxuchi CONDUIT   2147.74     0  01:55      3.55    0.94    1.00
  WSF200WS02003060     CONDUIT    955.84     0  01:58      1.97    0.21    0.45
  1                    CONDUIT   1341.28     0  02:05      3.59    0.47    0.48
  CC-Pump-1            PUMP       200.00     0  02:20              1.00
  CC-Pump-2            PUMP       200.00     0  03:40              1.00
  JK-Pump-1            PUMP       300.00     0  00:00              1.00
  JK-Pump-2            PUMP       683.00     0  02:00              1.00
  XR-Pump-1            PUMP        95.00     0  00:00              1.00
  XR-Pump-2            PUMP        95.00     0  00:00              1.00
  XR-Pump-3            PUMP        95.00     0  00:00              1.00
  XR-Pump-4            PUMP        95.00     0  00:00              1.00
  
  
  ***************************
  Flow Classification Summary
  ***************************
  
  -------------------------------------------------------------------------------------
                      Adjusted    ---------- Fraction of Time in Flow Class ---------- 
                       /Actual         Up    Down  Sub   Sup   Up    Down  Norm  Inlet 
  Conduit               Length    Dry  Dry   Dry   Crit  Crit  Crit  Crit  Ltd   Ctrl  
  -------------------------------------------------------------------------------------
  WS02003066WSF200        1.00   0.01  0.02  0.00  0.00  0.97  0.00  0.00  0.47  0.00
  WS02006287WS02006284    1.00   0.03  0.01  0.00  0.66  0.30  0.00  0.00  0.63  0.00
  WS02006284WS02006280    1.00   0.04  0.00  0.00  0.00  0.00  0.00  0.96  0.00  0.00
  WS02006280WS02006229    1.00   0.04  0.00  0.00  0.02  0.03  0.00  0.91  0.02  0.00
  WS02006229WS02006228    1.00   0.00  0.00  0.00  1.00  0.00  0.00  0.00  0.00  0.00
  WS02006256WS02006235    1.00   0.00  0.00  0.00  1.00  0.00  0.00  0.00  0.00  0.00
  WS02006253WS02006251    1.00   0.02  0.01  0.00  0.96  0.00  0.01  0.00  0.00  0.00
  WS02006252WS02006251    1.00   0.09  0.00  0.00  0.22  0.00  0.69  0.00  0.00  0.00
  WS02006251WS02006249    1.00   0.00  0.00  0.00  1.00  0.00  0.00  0.00  0.16  0.00
  WS02006249WS02006248    1.00   0.00  0.01  0.00  0.95  0.00  0.05  0.00  0.00  0.00
  WS02006248WS02006247    1.00   0.01  0.00  0.00  0.99  0.00  0.00  0.00  0.07  0.00
  WS02006247WS02006245    1.00   0.00  0.00  0.00  0.99  0.00  0.00  0.00  0.00  0.00
  WS02006245WS02006243    1.00   0.00  0.00  0.00  0.97  0.00  0.00  0.03  0.00  0.00
  WS02006243WS02006242    1.00   0.00  0.00  0.00  1.00  0.00  0.00  0.00  0.17  0.00
  WS02006242WS02006240    1.00   0.00  0.00  0.00  1.00  0.00  0.00  0.00  0.00  0.00
  WS02006240WS02006239    1.00   0.00  0.00  0.00  0.96  0.00  0.00  0.04  0.01  0.00
  WS02006239WS02006238    1.00   0.00  0.00  0.00  1.00  0.00  0.00  0.00  0.11  0.00
  WS02006238WS02006235    1.00   0.00  0.00  0.00  1.00  0.00  0.00  0.00  0.00  0.00
  WS02006235WS02006234    1.00   0.00  0.00  0.00  0.97  0.00  0.02  0.00  0.00  0.00
  WS02006234WS02006232    1.00   0.00  0.00  0.00  1.00  0.00  0.00  0.00  0.06  0.00
  WS02006232WS02006231    1.00   0.00  0.00  0.00  1.00  0.00  0.00  0.00  0.00  0.00
  WS02006231WS02006230    1.00   0.00  0.00  0.00  0.80  0.00  0.20  0.00  0.00  0.00
  WS02006230WS02006229    1.00   0.00  0.00  0.00  1.00  0.00  0.00  0.00  0.00  0.00
  WS02006228WS02006109    1.00   0.00  0.00  0.00  1.00  0.00  0.00  0.00  0.00  0.00
  WS02006116WS02004401    1.00   0.01  0.00  0.00  0.99  0.00  0.00  0.00  0.00  0.00
  WS02006115WS02006116    1.00   0.01  0.00  0.00  0.99  0.00  0.00  0.00  0.00  0.00
  WS02006113WS02006111    1.00   0.01  0.00  0.00  0.06  0.93  0.00  0.00  0.12  0.00
  WS02006112WS02006115    1.00   0.01  0.00  0.00  0.99  0.00  0.00  0.00  0.00  0.00
  WS02006111WS02006112    1.00   0.01  0.00  0.00  0.99  0.00  0.00  0.00  0.80  0.00
  WS02006110WS02006113    1.00   0.00  0.00  0.00  0.99  0.00  0.00  0.00  0.00  0.00
  WS02006109WS02006110    1.00   0.00  0.00  0.00  0.99  0.00  0.00  0.00  0.00  0.00
  WS02004411WS02004412    1.00   0.02  0.00  0.00  0.98  0.00  0.00  0.00  0.00  0.00
  WS02004401WS02004402    1.00   0.01  0.00  0.00  0.99  0.00  0.00  0.00  0.00  0.00
  WS02004413WS02003067    1.00   0.02  0.01  0.00  0.00  0.00  0.98  0.00  0.00  0.00
  WS02004412WS02004413    1.00   0.02  0.00  0.00  0.98  0.00  0.00  0.00  0.01  0.00
  WS02004410WS02004411    1.00   0.01  0.00  0.00  0.99  0.00  0.00  0.00  0.00  0.00
  WS02004409WS02004410    1.00   0.01  0.00  0.00  0.99  0.00  0.00  0.00  0.02  0.00
  WS02004407WS02004409    1.00   0.01  0.00  0.00  0.98  0.00  0.00  0.00  0.95  0.00
  WS02004406WS02004407    1.00   0.00  0.01  0.00  0.99  0.00  0.00  0.00  0.00  0.00
  WS02004405WS02004406    1.00   0.00  0.00  0.00  1.00  0.00  0.00  0.00  0.00  0.00
  WS02004404WS02004405    1.00   0.00  0.00  0.00  1.00  0.00  0.00  0.00  0.00  0.00
  WS02004403WS02004404    1.00   0.00  0.01  0.00  0.99  0.00  0.00  0.00  0.00  0.00
  WS02004402WS02004403    1.00   0.01  0.00  0.00  0.99  0.00  0.00  0.00  0.00  0.00
  WS02004139WS02001211    1.00   0.00  0.00  0.00  1.00  0.00  0.00  0.00  0.00  0.00
  WS02004138WS02004139    1.00   0.00  0.00  0.00  1.00  0.00  0.00  0.00  1.00  0.00
  WS02003067WS02003066    1.00   0.02  0.00  0.00  0.97  0.00  0.00  0.00  0.00  0.00
  WS02001213WS02003059    1.00   0.00  0.00  0.00  1.00  0.00  0.00  0.00  0.00  0.00
  WS02001212WS02001213    1.00   0.00  0.00  0.00  0.94  0.00  0.06  0.00  0.00  0.00
  WS02001211WS02001212    1.00   0.00  0.00  0.00  1.00  0.00  0.00  0.00  0.00  0.00
  WS02003072WS02003073    1.00   0.00  0.00  0.00  0.00  0.00  0.00  1.00  0.00  0.00
  WS02003069WS02003072    1.00   0.00  0.00  0.00  1.00  0.00  0.00  0.00  0.09  0.00
  WS02003060WS02003069    1.00   0.00  0.00  0.00  0.99  0.01  0.00  0.00  0.07  0.00
  WS02003059WS02003060    1.00   0.00  0.00  0.00  1.00  0.00  0.00  0.00  0.01  0.00
  HS02004901HS02004770    1.00   0.03  0.00  0.00  0.97  0.00  0.00  0.00  0.00  0.00
  HS02004876HS02004881    1.00   0.01  0.00  0.00  0.91  0.08  0.00  0.00  0.00  0.00
  HS02004870HS02004876    1.00   0.00  0.00  0.00  0.99  0.00  0.00  0.00  0.95  0.00
  HS02004842HS02004848    1.00   0.00  0.03  0.00  0.97  0.00  0.00  0.00  0.56  0.00
  HS02004837HS02004842    1.00   0.00  0.00  0.00  1.00  0.00  0.00  0.00  0.11  0.00
  HS02004830HS02004837    1.00   0.00  0.00  0.00  1.00  0.00  0.00  0.00  0.99  0.00
  HS02004824HS02004830    1.00   0.00  0.00  0.00  1.00  0.00  0.00  0.00  0.03  0.00
  HS02004817HS02004824    1.00   0.00  0.00  0.00  1.00  0.00  0.00  0.00  0.92  0.00
  HS02004770HS02004777    1.00   0.00  0.03  0.00  0.97  0.00  0.00  0.00  0.02  0.00
  HS02004799HS02004480    1.00   0.00  0.01  0.00  0.96  0.00  0.03  0.00  0.00  0.00
  HS02004792HS02004799    1.00   0.00  0.00  0.00  1.00  0.00  0.00  0.00  0.98  0.00
  HS02004788HS02004792    1.00   0.00  0.00  0.00  1.00  0.00  0.00  0.00  0.98  0.00
  HS02004785HS02004788    1.00   0.00  0.00  0.00  1.00  0.00  0.00  0.00  0.00  0.00
  HS02004777HS02004785    1.00   0.00  0.00  0.00  1.00  0.00  0.00  0.00  0.11  0.00
  HS02004480HS02004478    1.00   0.03  0.00  0.00  0.70  0.00  0.00  0.26  0.00  0.00
  HS02004479HS02004480    1.00   0.01  0.00  0.00  0.99  0.00  0.00  0.00  0.11  0.00
  HS02004862HS02004870    1.00   0.00  0.00  0.00  1.00  0.00  0.00  0.00  0.03  0.00
  HS02004848HS02004852    1.00   0.03  0.00  0.00  0.97  0.00  0.00  0.00  0.79  0.00
  HS02004856HS02004862    1.00   0.00  0.04  0.00  0.96  0.00  0.00  0.00  0.84  0.00
  HS02004852HS02004856    1.00   0.03  0.00  0.00  0.96  0.00  0.00  0.00  0.77  0.00
  HS02004802HS02004478    1.00   0.03  0.00  0.00  0.96  0.00  0.00  0.00  0.02  0.00
  HS02004478WS02006287    1.00   0.04  0.00  0.00  0.77  0.20  0.00  0.00  0.62  0.00
  HS02004817HS02004807    1.00   0.00  0.03  0.00  0.97  0.00  0.00  0.00  0.01  0.00
  HS02004807HS02004802    1.00   0.03  0.00  0.00  0.96  0.00  0.00  0.00  0.00  0.00
  YS02001759YS02001757    1.00   0.00  0.00  0.00  1.00  0.00  0.00  0.00  0.15  0.00
  YS02001762YS02001759    1.00   0.00  0.00  0.00  1.00  0.00  0.00  0.00  0.02  0.00
  YS02001765YS02001762    1.00   0.00  0.00  0.00  1.00  0.00  0.00  0.00  0.13  0.00
  YS02001770YS02001767    1.00   0.00  0.00  0.00  1.00  0.00  0.00  0.00  0.00  0.00
  YS02001774YS02001770    1.00   0.00  0.03  0.00  0.97  0.00  0.00  0.00  0.02  0.00
  YS02001779YS02001774    1.00   0.00  0.00  0.00  1.00  0.00  0.00  0.00  0.17  0.00
  YS02001649YS02001757    1.00   0.00  0.00  0.00  1.00  0.00  0.00  0.00  0.15  0.00
  YS02001767YS02001765    1.00   0.00  0.00  0.00  1.00  0.00  0.00  0.00  0.00  0.00
  YS02006561YS02001783    1.00   0.04  0.00  0.00  0.40  0.56  0.00  0.00  0.42  0.00
  YS02001783YS02001784    1.00   0.00  0.04  0.00  0.96  0.00  0.00  0.00  0.00  0.00
  YS02001784YS02001785    1.00   0.00  0.00  0.00  1.00  0.00  0.00  0.00  0.16  0.00
  YS02001788YS02001790    1.00   0.00  0.00  0.00  0.46  0.54  0.00  0.00  0.35  0.00
  YS02001790YS02001791    1.00   0.00  0.00  0.00  0.43  0.57  0.00  0.00  0.41  0.00
  YS02001791YS02001793    1.00   0.00  0.00  0.00  0.46  0.54  0.00  0.00  0.02  0.00
  YS02001910YS02001907    1.00   0.00  0.00  0.00  0.99  0.00  0.00  0.01  0.12  0.00
  YS02001786YS02001788    1.00   0.00  0.00  0.00  0.44  0.56  0.00  0.00  0.00  0.00
  YS02001915YS02001910    1.00   0.00  0.00  0.00  0.99  0.01  0.00  0.00  0.13  0.00
  YS02001918YS02001915    1.00   0.00  0.00  0.00  0.99  0.01  0.00  0.00  0.50  0.00
  YS02001923YS02001920    1.00   0.00  0.00  0.00  1.00  0.00  0.00  0.00  0.74  0.00
  YS02001926YS02001923    1.00   0.00  0.02  0.00  0.23  0.00  0.75  0.00  0.00  0.00
  YS02001929YS02001926    1.00   0.00  0.03  0.00  0.97  0.00  0.00  0.00  0.65  0.00
  YS02001920YS02001918    1.00   0.00  0.00  0.00  1.00  0.00  0.00  0.00  0.00  0.00
  YS02001629YS02163301    1.00   0.04  0.00  0.00  0.96  0.00  0.00  0.00  0.00  0.00
  YS02001619YS02001622    1.00   0.03  0.00  0.00  0.97  0.00  0.00  0.00  0.00  0.00
  YS02001622YS02001625    1.00   0.03  0.00  0.00  0.97  0.00  0.00  0.00  0.03  0.00
  YS02001625YS02001629    1.00   0.03  0.01  0.00  0.94  0.00  0.01  0.00  0.00  0.00
  YS02163301YS02001633    1.00   0.00  0.04  0.00  0.96  0.00  0.00  0.00  0.00  0.00
  YS02163601YS02164001    1.00   0.00  0.02  0.00  0.98  0.00  0.00  0.00  0.00  0.00
  YS02164001YS02001641    1.00   0.00  0.02  0.00  0.98  0.00  0.00  0.00  0.06  0.00
  YS02001641YS02001644    1.00   0.00  0.00  0.00  1.00  0.00  0.00  0.00  0.00  0.00
  YS02001647YS02001649    1.00   0.00  0.04  0.00  0.96  0.00  0.00  0.00  0.01  0.00
  YS02006553YS02006556    1.00   0.00  0.00  0.00  1.00  0.00  0.00  0.00  0.03  0.00
  YS02006556YS02006558    1.00   0.00  0.00  0.00  1.00  0.00  0.00  0.00  0.00  0.00
  YSB6556YSB1171          1.00   0.01  0.02  0.00  0.97  0.00  0.00  0.00  0.00  0.00
  YS02001907YS02006553    1.00   0.00  0.01  0.00  0.99  0.00  0.00  0.00  0.00  0.00
  YS02006558YS02006561    1.00   0.04  0.00  0.00  0.23  0.73  0.00  0.00  0.43  0.00
  YS02001633YS02163601    1.00   0.00  0.00  0.00  1.00  0.00  0.00  0.00  0.15  0.00
  YS02001644YS02001647    1.00   0.00  0.04  0.00  0.96  0.00  0.00  0.00  0.00  0.00
  YS02001745YS02001748    1.00   0.00  0.00  0.00  0.93  0.00  0.00  0.06  0.01  0.00
  YS02001748YS02001751    1.00   0.00  0.00  0.00  0.98  0.02  0.00  0.00  0.14  0.00
  YS02001751YS02001754    1.00   0.00  0.00  0.00  0.95  0.00  0.00  0.05  0.01  0.00
  YS02001754YS02001757    1.00   0.00  0.00  0.00  1.00  0.00  0.00  0.00  0.17  0.00
  YS02001882YS02001884    1.00   0.04  0.00  0.00  0.96  0.00  0.00  0.00  0.00  0.00
  YS02001884YS02001887    1.00   0.02  0.01  0.00  0.97  0.00  0.00  0.00  0.00  0.00
  YS02001890YS02001895    1.00   0.00  0.04  0.00  0.96  0.00  0.00  0.00  0.00  0.00
  YS02001895YS02001898    1.00   0.04  0.00  0.00  0.95  0.00  0.01  0.00  0.00  0.00
  YS02001898YS02001901    1.00   0.04  0.00  0.00  0.96  0.00  0.00  0.00  0.01  0.00
  YS02001901YS02001904    1.00   0.04  0.00  0.00  0.96  0.00  0.00  0.00  0.00  0.00
  YS02001904YS02001907    1.00   0.00  0.04  0.00  0.96  0.00  0.00  0.00  0.00  0.00
  YS02001887YS02001890    1.00   0.00  0.00  0.00  0.99  0.00  0.01  0.00  0.00  0.00
  YS02001652YS02001649    1.00   0.00  0.00  0.00  1.00  0.00  0.00  0.00  0.15  0.00
  YS02001655YS02001652    1.00   0.00  0.00  0.00  0.95  0.00  0.00  0.05  0.01  0.00
  YS02001658YS02001655    1.00   0.00  0.04  0.00  0.94  0.02  0.00  0.00  0.02  0.00
  YS02001661YS02001658    1.00   0.04  0.00  0.00  0.93  0.03  0.00  0.00  0.01  0.00
  YS02001664YS02001661    1.00   0.03  0.00  0.00  0.94  0.03  0.00  0.00  0.10  0.00
  YSB1154YSB6556          1.00   0.03  0.00  0.00  0.97  0.00  0.00  0.00  0.01  0.00
  YSB1174YSB1171          1.00   0.02  0.01  0.00  0.97  0.00  0.00  0.00  0.00  0.00
  YSB1171HS02004479       1.00   0.01  0.00  0.00  0.98  0.00  0.00  0.00  0.10  0.00
  HS02004881HS02006253    1.00   0.02  0.00  0.00  0.85  0.01  0.00  0.12  0.72  0.00
  YS02001793JiankangQianchi    1.00   0.00  0.00  0.00  0.66  0.34  0.00  0.00  0.32  0.00
  YS02001757CaochengTiaoxuchi    1.00   0.00  0.05  0.00  0.92  0.03  0.00  0.00  0.00  0.00
  WSF200WS02003060        1.00   0.00  0.01  0.00  0.99  0.00  0.00  0.00  0.27  0.00
  1                       1.00   0.00  0.00  0.00  0.00  1.00  0.00  0.00  0.56  0.00
  
  
  *************************
  Conduit Surcharge Summary
  *************************
  
  ----------------------------------------------------------------------------
                                                           Hours        Hours 
                         --------- Hours Full --------   Above Full   Capacity
  Conduit                Both Ends  Upstream  Dnstream   Normal Flow   Limited
  ----------------------------------------------------------------------------
  WS02006229WS02006228        5.00      5.05      5.00      5.58         5.00
  WS02006256WS02006235        6.36      6.36      6.97      4.70         0.01
  WS02006253WS02006251        3.11      3.11      3.19      0.01         0.01
  WS02006252WS02006251        2.35      2.35      3.82      2.48         0.01
  WS02006251WS02006249        3.13      3.13      3.22      1.54         1.36
  WS02006249WS02006248        3.15      3.15      3.22      4.87         0.01
  WS02006248WS02006247        3.21      3.21      3.50      0.01         0.01
  WS02006247WS02006245        3.47      3.57      3.47      5.23         3.23
  WS02006245WS02006243        3.54      3.55      3.73      0.56         0.56
  WS02006243WS02006242        3.80      3.80      4.62      0.01         0.01
  WS02006242WS02006240        4.50      4.50      4.71      3.05         0.01
  WS02006240WS02006239        4.52      4.53      4.56      1.56         1.14
  WS02006239WS02006238        4.68      4.71      4.77      1.65         1.32
  WS02006238WS02006235        4.73      4.73      4.90      0.01         0.02
  WS02006235WS02006234        4.48      4.48      4.68      6.03         0.01
  WS02006234WS02006232        4.60      4.60      4.95      1.13         1.12
  WS02006232WS02006231        3.04      3.04      4.95      1.32         0.01
  WS02006231WS02006230        2.49      2.49      3.12      6.17         0.02
  WS02006230WS02006229        5.26      5.42      5.26      6.29         5.06
[...]
  YS02001779YS02001774        6.13      6.13      6.19      0.01         0.01
  YS02001649YS02001757        6.19      6.19      6.23      0.01         0.01
  YS02001767YS02001765        6.18      6.18      6.18      0.01         0.01
  YS02006561YS02001783        1.69      1.69      1.94      0.01         0.01
  YS02001783YS02001784        1.92      1.94      1.92      2.12         1.89
  YS02001784YS02001785        1.86      1.92      1.86      2.91         1.86
  YS02001788YS02001790        1.81      1.81      2.65      0.01         0.01
  YS02001790YS02001791        2.65      2.65      2.74      1.82         1.80
  YS02001791YS02001793        2.74      2.74      3.08      0.01         0.01
  YS02001910YS02001907        1.93      1.93      2.40      0.01         0.01
  YS02001786YS02001788        1.81      1.86      1.81      2.53         1.81
  YS02001915YS02001910        1.80      1.80      1.93      0.01         0.01
  YS02001918YS02001915        1.65      1.65      1.80      0.01         0.01
  YS02001923YS02001920        1.49      1.49      1.68      0.01         0.01
  YS02001926YS02001923        0.01      0.01      0.01      0.01         0.01
  YS02001929YS02001926        0.01      0.01      0.01      0.01         0.01
  YS02001920YS02001918        1.65      1.65      1.68      0.01         0.01
  YS02001629YS02163301        6.16      6.16      6.17      0.01         0.01
  YS02001619YS02001622        6.09      6.09      6.10      0.01         0.02
  YS02001622YS02001625        6.10      6.10      6.16      0.01         0.01
  YS02001625YS02001629        6.09      6.09      6.16      0.01         0.01
  YS02163301YS02001633        6.17      6.17      6.18      0.01         0.01
  YS02163601YS02164001        6.17      6.17      6.20      0.01         0.01
  YS02164001YS02001641        6.17      6.17      6.18      0.01         0.02
  YS02001641YS02001644        6.18      6.18      6.18      2.38         2.52
  YS02001647YS02001649        6.15      6.15      6.19      0.01         0.01
  YS02006553YS02006556        2.11      2.11      2.46      0.01         0.01
  YS02006556YS02006558        2.20      2.20      2.52      0.01         0.01
  YSB6556YSB1171              0.01      0.01      0.30      0.01         0.01
  YS02001907YS02006553        2.94      2.94      3.12      0.01         0.01
  YS02006558YS02006561        1.78      2.08      1.78      2.78         1.78
  YS02001633YS02163601        6.17      6.17      6.20      0.01         0.01
  YS02001644YS02001647        6.15      6.15      6.18      0.01         0.01
  YS02001745YS02001748        0.01      0.01      6.04      0.01         0.01
  YS02001748YS02001751        6.05      6.05      6.08      0.01         0.01
  YS02001751YS02001754        6.08      6.08      6.14      0.01         0.01
  YS02001754YS02001757        6.15      6.15      6.23      0.01         0.01
  YS02001882YS02001884        1.80      1.80      1.82      0.01         0.01
  YS02001884YS02001887        1.85      1.85      1.87      0.01         0.01
  YS02001890YS02001895        1.79      1.79      1.95      0.01         0.01
  YS02001895YS02001898        1.78      1.78      1.79      0.01         0.01
  YS02001898YS02001901        1.79      1.79      1.85      0.01         0.01
  YS02001901YS02001904        1.84      1.84      1.85      0.01         0.01
  YS02001904YS02001907        1.84      1.84      2.48      0.01         0.01
  YS02001887YS02001890        1.90      1.90      1.91      0.52         0.01
  YS02001652YS02001649        6.16      6.16      6.19      0.01         0.01
  YS02001655YS02001652        6.10      6.10      6.15      0.01         0.01
  YS02001658YS02001655        6.05      6.05      6.10      0.01         0.01
  YS02001661YS02001658        0.05      0.05      6.05      0.01         0.01
  YS02001664YS02001661        0.01      0.01      1.85      0.01         0.01
  HS02004881HS02006253        0.01      0.01      2.10      0.01         0.01
  YS02001793JiankangQianchi        3.00      3.00      4.29      0.01         0.01
  YS02001757CaochengTiaoxuchi        5.75      5.75      6.23      0.01         0.01
  
  
  ***************
  Pumping Summary
  ***************
  
  ---------------------------------------------------------------------------------------------------------
                                                  Min       Avg       Max     Total     Power    % Time Off
                        Percent   Number of      Flow      Flow      Flow    Volume     Usage    Pump Curve
  Pump                 Utilized   Start-Ups       LPS       LPS       LPS  10^6 ltr     Kw-hr    Low   High
  ---------------------------------------------------------------------------------------------------------
  CC-Pump-1               72.33           1      0.00    182.18    200.00     3.660      3.84    0.0    0.0
  CC-Pump-2               46.80           5      0.00     99.36    200.00     1.620      2.15    0.0    0.0
  JK-Pump-1               63.84           4      0.00    234.77    300.00     4.221     57.63    0.0    0.0
  JK-Pump-2               57.46           3      0.00    433.00    683.00     7.612     93.26    0.0   98.0
  XR-Pump-1               97.88           2      0.00     94.25     95.00     2.565     20.40    0.0    0.0
  XR-Pump-2               97.88           2      0.00     94.25     95.00     2.565     20.40    0.0    0.0
  XR-Pump-3               97.88           2      0.00     93.82     95.00     2.508     19.09    0.0    0.0
  XR-Pump-4               97.88           2      0.00     93.82     95.00     2.508     19.09    0.0    0.0
  
  
  ***************************
  Link Pollutant Load Summary
  ***************************
  
  ------------------------------------------------------------------------------------------
                                 COD            SS            TN            TP         NH4-N
  Link                            kg            kg            kg            kg            kg
  ------------------------------------------------------------------------------------------
  WS02003066WSF200          1191.379      2291.908        28.187         2.331        14.471
  WS02006287WS02006284       438.103       854.581        12.586         1.181         6.763
  WS02006284WS02006280       438.605       855.391        12.634         1.187         6.792
  WS02006280WS02006229       438.615       855.458        12.632         1.186         6.791
  WS02006229WS02006228      1189.025      2286.769        27.610         2.247        14.094
  WS02006256WS02006235       225.998       427.914         4.684         0.348         2.324
  WS02006253WS02006251        85.771       172.019         1.841         0.136         0.906
  WS02006252WS02006251       521.346       991.531        10.072         0.688         4.854
  WS02006251WS02006249       597.210      1145.297        11.724         0.812         5.671
  WS02006249WS02006248       542.557      1037.795        10.674         0.739         5.166
  WS02006248WS02006247       540.722      1034.075        10.638         0.737         5.149
  WS02006247WS02006245       540.279      1033.354        10.627         0.736         5.143
  WS02006245WS02006243       540.069      1033.239        10.618         0.735         5.138
  WS02006243WS02006242       539.558      1032.406        10.608         0.735         5.133
  WS02006242WS02006240       538.049      1029.531        10.575         0.732         5.117
  WS02006240WS02006239       536.627      1026.715        10.547         0.730         5.103
  WS02006239WS02006238       535.584      1024.458        10.534         0.730         5.098
  WS02006238WS02006235       534.560      1022.188        10.517         0.729         5.091
  WS02006235WS02006234       756.231      1442.089        15.102         1.069         7.364
  WS02006234WS02006232       755.223      1440.261        15.084         1.068         7.356
  WS02006232WS02006231       754.098      1438.176        15.062         1.067         7.345
  WS02006231WS02006230       753.013      1436.152        15.044         1.066         7.337
  WS02006230WS02006229       753.205      1436.625        15.059         1.068         7.347
  WS02006228WS02006109      1187.613      2284.211        27.578         2.245        14.078
  WS02006116WS02004401      1203.755      2314.447        28.463         2.351        14.609
  WS02006115WS02006116      1205.559      2317.739        28.509         2.355        14.633
  WS02006113WS02006111      1192.366      2291.242        28.296         2.339        14.537
  WS02006112WS02006115      1207.374      2321.039        28.561         2.360        14.661
  WS02006111WS02006112      1191.315      2289.179        28.271         2.337        14.524
  WS02006110WS02006113      1193.189      2292.619        28.321         2.341        14.551
  WS02006109WS02006110      1194.681      2295.212        28.367         2.345        14.575
  WS02004411WS02004412      1194.563      2297.665        28.291         2.341        14.528
  WS02004401WS02004402      1202.180      2311.598        28.418         2.347        14.584
  WS02004413WS02003067      1191.981      2292.999        28.202         2.332        14.479
  WS02004412WS02004413      1193.344      2295.460        28.253         2.338        14.508
  WS02004410WS02004411      1195.559      2299.460        28.320         2.344        14.544
  WS02004409WS02004410      1196.593      2301.326        28.352         2.347        14.561
  WS02004407WS02004409      1197.478      2302.915        28.377         2.349        14.574
  WS02004406WS02004407      1197.672      2303.230        28.379         2.349        14.575
  WS02004405WS02004406      1199.025      2305.622        28.427         2.353        14.602
  WS02004404WS02004405      1200.061      2307.547        28.433         2.353        14.603
  WS02004403WS02004404      1199.649      2307.029        28.345         2.341        14.546
  WS02004402WS02004403      1200.793      2309.093        28.380         2.344        14.564
  WS02004139WS02001211      1359.658      2304.414       101.973        12.300        62.434
  WS02004138WS02004139      1365.976      2315.069       102.443        12.357        62.722
  WS02003067WS02003066      1191.548      2292.215        28.193         2.332        14.474
  WS02001213WS02003059      1392.622      2355.963       105.434        12.737        64.611
  WS02001212WS02001213      1401.902      2371.465       106.165        12.826        65.060
  WS02001211WS02001212      1404.026      2374.948       106.346        12.848        65.172
  WS02003072WS02003073      2683.932      4806.286       143.623        16.325        85.350
  WS02003069WS02003072      2689.097      4814.831       144.042        16.377        85.609
  WS02003060WS02003069      2691.730      4819.459       144.179        16.392        85.690
  WS02003059WS02003060      1389.492      2350.590       105.225        12.713        64.484
  HS02004901HS02004770        19.400        38.444         0.369         0.028         0.174
  HS02004876HS02004881        64.843       131.157         1.382         0.100         0.674
  HS02004870HS02004876        49.302        99.620         1.095         0.080         0.537
  HS02004842HS02004848         9.278        18.137         0.191         0.013         0.089
  HS02004837HS02004842        13.925        25.525         0.662         0.072         0.384
  HS02004830HS02004837        81.308       145.732         4.858         0.568         2.931
  HS02004824HS02004830        82.101       147.037         4.931         0.577         2.976
  HS02004817HS02004824       118.565       221.808         5.667         0.624         3.333
  HS02004770HS02004777        73.686       147.829         1.507         0.104         0.700
  HS02004799HS02004480       235.088       460.651         5.679         0.484         2.882
  HS02004792HS02004799       214.147       417.342         5.330         0.464         2.722
  HS02004788HS02004792       116.318       227.348         3.333         0.303         1.755
  HS02004785HS02004788        75.103       150.095         1.653         0.123         0.793
  HS02004777HS02004785        74.432       149.019         1.592         0.115         0.755
  HS02004480HS02004478       294.431       579.945         6.704         0.559         3.370
  HS02004479HS02004480        62.981       125.167         1.335         0.113         0.681
  HS02004862HS02004870        37.532        74.850         0.862         0.066         0.425
  HS02004848HS02004852        15.822        31.382         0.320         0.022         0.149
  HS02004856HS02004862        25.851        52.199         0.514         0.035         0.242
  HS02004852HS02004856        15.836        31.405         0.320         0.022         0.149
  HS02004802HS02004478       144.598       276.118         5.948         0.629         3.432
  HS02004478WS02006287       438.248       854.787        12.602         1.183         6.773
  HS02004817HS02004807       117.207       219.666         5.527         0.607         3.246
  HS02004807HS02004802       144.763       276.369         5.980         0.634         3.453
  YS02001759YS02001757       459.320       866.848         9.010         0.629         4.392
  YS02001762YS02001759       242.482       455.776         4.966         0.348         2.441
  YS02001765YS02001762       243.593       458.926         5.003         0.352         2.461
  YS02001770YS02001767       247.042       468.687         4.904         0.332         2.384
  YS02001774YS02001770       430.447       847.136         8.263         0.555         3.997
  YS02001779YS02001774       429.350       845.005         8.320         0.565         4.039
  YS02001649YS02001757       389.781       731.256         7.659         0.532         3.679
  YS02001767YS02001765       245.520       463.697         5.050         0.355         2.486
  YS02006561YS02001783      1263.223      2384.932        26.061         1.925        12.899
  YS02001783YS02001784      1263.134      2384.805        26.057         1.924        12.897
  YS02001784YS02001785      1270.476      2396.575        26.770         2.014        13.343
  YS02001788YS02001790      1271.110      2397.615        26.842         2.023        13.389
  YS02001790YS02001791      1272.042      2399.099        26.940         2.035        13.450
  YS02001791YS02001793      1271.998      2399.025        26.937         2.035        13.448
  YS02001910YS02001907       565.718      1068.249        12.776         0.944         6.451
  YS02001786YS02001788      1270.679      2396.909        26.798         2.017        13.361
  YS02001915YS02001910       565.472      1067.750        12.730         0.937         6.420
  YS02001918YS02001915       279.034       506.088         6.911         0.595         3.632
  YS02001923YS02001920       253.896       463.150         4.888         0.349         2.384
  YS02001926YS02001923       250.791       457.576         4.764         0.337         2.312
  YS02001929YS02001926       248.057       452.786         4.646         0.324         2.244
  YS02001920YS02001918       274.925       497.468         6.820         0.589         3.588
  YS02001629YS02163301        89.644       159.238         1.893         0.124         0.888
  YS02001619YS02001622       259.374       485.223         5.243         0.348         2.461
  YS02001622YS02001625       258.418       483.724         5.219         0.346         2.450
  YS02001625YS02001629        86.729       153.457         1.848         0.120         0.865
  YS02163301YS02001633        94.475       168.713         1.970         0.131         0.926
  YS02163601YS02164001       529.185       976.796        10.168         0.735         4.887
  YS02164001YS02001641       529.081       976.607        10.155         0.733         4.880
  YS02001641YS02001644       530.121       978.354        10.168         0.734         4.885
  YS02001647YS02001649       548.553      1033.428        10.780         0.755         5.138
  YS02006553YS02006556       782.172      1457.795        16.629         1.259         8.330
  YS02006556YS02006558       782.372      1458.164        16.595         1.254         8.306
  YSB6556YSB1171              36.520        72.732         0.718         0.059         0.359
  YS02001907YS02006553       782.129      1457.730        16.656         1.263         8.348
  YS02006558YS02006561      1263.197      2384.867        26.061         1.925        12.899
  YS02001633YS02163601       529.776       977.728        10.145         0.731         4.869
  YS02001644YS02001647       557.994      1051.011        10.940         0.767         5.214
  YS02001745YS02001748       354.069       679.961         6.989         0.437         3.358
  YS02001748YS02001751       353.387       678.805         6.996         0.440         3.365
  YS02001751YS02001754       352.494       677.342         6.983         0.440         3.360
  YS02001754YS02001757       353.328       678.592         7.150         0.462         3.469
  YS02001882YS02001884         4.991         8.901         0.095         0.007         0.047
  YS02001884YS02001887         7.430        13.411         0.141         0.011         0.069
  YS02001890YS02001895       614.563      1175.012        11.357         0.858         5.541
  YS02001895YS02001898       614.459      1174.917        11.351         0.858         5.538
  YS02001898YS02001901       614.442      1174.813        11.353         0.858         5.539
  YS02001901YS02001904       613.996      1174.184        11.352         0.858         5.540
  YS02001904YS02001907       614.607      1175.107        11.420         0.867         5.583
  YS02001887YS02001890       669.115      1284.111        12.353         0.936         6.030
  YS02001652YS02001649       315.545       598.689         6.268         0.453         2.946
  YS02001655YS02001652       316.021       599.485         6.282         0.454         2.952
  YS02001658YS02001655       315.486       598.660         6.194         0.443         2.895
  YS02001661YS02001658       315.999       599.524         6.206         0.443         2.901
  YS02001664YS02001661       327.262       617.101         6.480         0.462         3.026
  YSB1154YSB6556              36.100        72.067         0.671         0.053         0.330
  YSB1174YSB1171              24.945        50.009         0.488         0.039         0.242
  YSB1171HS02004479           62.901       125.017         1.340         0.114         0.684
  HS02004881HS02006253        73.333       148.885         1.529         0.109         0.744
  YS02001793JiankangQianchi      1272.586      2399.986        26.962         2.038        13.462
  YS02001757CaochengTiaoxuchi       787.970      1478.307        15.578         1.064         7.530
  WSF200WS02003060          1191.130      2291.455        28.186         2.331        14.471
  1                         2690.653      4816.133       144.525        16.442        85.925
  CC-Pump-1                  362.345       689.320         6.994         0.478         3.370
  CC-Pump-2                  158.807       301.785         3.074         0.210         1.482
  JK-Pump-1                  335.655       640.953         6.815         0.502         3.364
  JK-Pump-2                  733.357      1406.293        14.769         1.085         7.278
  XR-Pump-1                  348.821       590.552        26.299         3.175        16.110
  XR-Pump-2                  348.821       590.552        26.299         3.175        16.110
  XR-Pump-3                  336.075       570.159        25.076         3.022        15.345
  XR-Pump-4                  336.075       570.159        25.076         3.022        15.345
  

  Analysis begun on:  Wed Jul 14 15:32:32 2021
  Analysis ended on:  Wed Jul 14 15:32:35 2021
  Total elapsed time: 00:00:03