
  EPA STORM WATER MANAGEMENT MODEL - VERSION 5.1 (Build 5.3.0.dev0)
  --------------------------------------------------------------

  WARNING 04: minimum elevation drop used for Conduit WS02004404WS02004405
  WARNING 03: negative offset ignored for Link YS02001904YS02001907
  
  *********************************************************
  NOTE: The summary statistics displayed in this report are
  based on results found at every computational time step,  
  not just on results from each reporting time step.
  *********************************************************
  
  ****************
  Analysis Options
  ****************
  Flow Units ............... LPS
  Process Models:
    Rainfall/Runoff ........ YES
    RDII ................... NO
    Snowmelt ............... NO
    Groundwater ............ NO
    Flow Routing ........... YES
    Ponding Allowed ........ NO
    Water Quality .......... YES
  Infiltration Method ...... HORTON
  Flow Routing Method ...... DYNWAVE
  Surcharge Method ......... EXTRAN
  Starting Date ............ 08/28/2015 08:00:00
  Ending Date .............. 08/28/2015 15:50:00
  Antecedent Dry Days ...... 8.0
  Report Time Step ......... 00:01:00
  Wet Time Step ............ 00:01:00
  Dry Time Step ............ 00:01:00
  Routing Time Step ........ 5.00 sec
  Variable Time Step ....... YES
  Maximum Trials ........... 8
  Number of Threads ........ 4
  Head Tolerance ........... 0.001500 m
  
  
  **************************        Volume         Depth
  Runoff Quantity Continuity     hectare-m            mm
  **************************     ---------       -------
  Total Precipitation ......         1.890         4.138
  Evaporation Loss .........         0.000         0.000
  Infiltration Loss ........         0.446         0.976
  Surface Runoff ...........         1.019         2.231
  Final Storage ............         0.426         0.933
  Continuity Error (%) .....        -0.023
  
  
  **************************           COD            SS            TN            TP         NH4-N
  Runoff Quality Continuity             kg            kg            kg            kg            kg
  **************************    ----------    ----------    ----------    ----------    ----------
  Initial Buildup ..........     41378.656     70582.865      1804.177       168.684      1032.807
  Surface Buildup ..........        13.488        15.104         3.115         0.289         1.848
  Wet Deposition ...........         0.000         0.000         0.000         0.000         0.000
  Sweeping Removal .........         0.000         0.000         0.000         0.000         0.000
  Infiltration Loss ........        16.587        27.903         0.343         0.023         0.160
  BMP Removal ..............         0.000         0.000         0.000         0.000         0.000
  Surface Runoff ...........       507.499       831.095        10.606         0.673         4.983
  Remaining Buildup ........     40867.899     69738.717      1796.340       168.276      1029.511
  Continuity Error (%) .....         0.000         0.000         0.000         0.000         0.000
  
  
  **************************        Volume        Volume
  Flow Routing Continuity        hectare-m      10^6 ltr
  **************************     ---------     ---------
  Dry Weather Inflow .......         0.616         6.165
  Wet Weather Inflow .......         1.018        10.184
  Groundwater Inflow .......         0.000         0.000
  RDII Inflow ..............         0.000         0.000
  External Inflow ..........         0.102         1.024
  External Outflow .........         1.130        11.303
  Flooding Loss ............         0.199         1.987
  Evaporation Loss .........         0.000         0.000
  Exfiltration Loss ........         0.000         0.000
  Initial Stored Volume ....         0.076         0.761
  Final Stored Volume ......         0.559         5.594
  Continuity Error (%) .....        -4.144
  
  
  **************************           COD            SS            TN            TP         NH4-N
  Quality Routing Continuity            kg            kg            kg            kg            kg
  **************************    ----------    ----------    ----------    ----------    ----------
  Dry Weather Inflow .......      1541.201      2465.922       147.955        18.494        92.472
  Wet Weather Inflow .......       507.333       830.850        10.602         0.673         4.981
  Groundwater Inflow .......         0.000         0.000         0.000         0.000         0.000
  RDII Inflow ..............         0.000         0.000         0.000         0.000         0.000
  External Inflow ..........       183.418       293.469        17.608         2.201        11.005
  External Outflow .........      1700.327      2737.137       152.646        18.903        94.924
  Flooding Loss ............        97.125       156.232         3.293         0.310         1.813
  Exfiltration Loss ........         0.000         0.000         0.000         0.000         0.000
  Mass Reacted .............         0.000         0.000         0.000         0.000         0.000
  Initial Stored Mass ......         0.000         0.000         0.000         0.000         0.000
  Final Stored Mass ........       361.044       578.262        16.764         1.783         9.703
  Continuity Error (%) .....         3.291         3.304         1.965         1.740         1.860
  
  
  *************************
  Highest Continuity Errors
  *************************
  Node YS02001774 (34.91%)
  Node HS02004842 (29.91%)
  Node YS02001884 (24.96%)
  Node JK-storage (-24.54%)
  Node YSB1171 (7.69%)
  
  
  ***************************
  Time-Step Critical Elements
  ***************************
  Link WS02006280WS02006229 (26.46%)
  Link WS02006252WS02006251 (24.60%)
  Link YS02001793JiankangQianchi (17.93%)
  Link WS02006238WS02006235 (12.10%)
  Link YS02001791YS02001793 (4.42%)
  
  
  ********************************
  Highest Flow Instability Indexes
  ********************************
  Link WS02006113WS02006111 (54)
  Link YS02164001YS02001641 (17)
  Link YS02001765YS02001762 (16)
  Link YS02001762YS02001759 (16)
  Link YS02001767YS02001765 (16)
  
  
  *************************
  Routing Time Step Summary
  *************************
  Minimum Time Step           :     0.50 sec
  Average Time Step           :     2.55 sec
  Maximum Time Step           :     5.00 sec
  Percent in Steady State     :    -0.00
  Average Iterations per Step :     2.86
  Percent Not Converging      :     5.04
  
  
  ***************************
  Subcatchment Runoff Summary
  ***************************
  
  ------------------------------------------------------------------------------------------------------------------------------
                            Total      Total      Total      Total     Imperv       Perv      Total       Total     Peak  Runoff
                           Precip      Runon       Evap      Infil     Runoff     Runoff     Runoff      Runoff   Runoff   Coeff
  Subcatchment                 mm         mm         mm         mm         mm         mm         mm    10^6 ltr      LPS
  ------------------------------------------------------------------------------------------------------------------------------
  sub0                       4.14       0.00       0.00       0.29       3.80       0.00       3.80        0.00     1.17   0.919
  sub1                       4.14       0.00       0.00       0.46       3.60       0.00       3.60        0.02     6.51   0.869
  sub2                       4.14       0.00       0.00       1.53       2.53       0.00       2.53        0.02     5.78   0.611
  sub3                       4.14       0.00       0.00       1.53       2.50       0.00       2.50        0.06    11.88   0.603
  sub4                       4.14       0.00       0.00       0.46       3.46       0.00       3.46        0.07    13.28   0.837
  sub5                       4.14       0.00       0.00       0.29       3.76       0.00       3.76        0.04    11.57   0.908
  sub7                       4.14       0.00       0.00       0.37       3.71       0.00       3.71        0.01     4.01   0.895
  sub8                       4.14       0.00       0.00       0.37       3.70       0.00       3.70        0.02     7.14   0.893
  sub9                       4.14       0.00       0.00       0.37       3.69       0.00       3.69        0.02     5.30   0.893
  sub10                      4.14       0.00       0.00       0.33       3.72       0.00       3.72        0.04    11.52   0.900
  sub11                      4.14       0.00       0.00       0.33       3.74       0.00       3.74        0.04    13.39   0.904
  sub12                      4.14       0.00       0.00       0.54       3.55       0.00       3.55        0.03    11.02   0.859
  sub14                      4.14       0.00       0.00       0.37       3.69       0.00       3.69        0.04    10.36   0.892
  sub15                      4.14       0.00       0.00       1.24       2.84       0.00       2.84        0.05    14.09   0.686
  sub16                      4.14       0.00       0.00       1.37       2.73       0.00       2.73        0.03     9.78   0.661
  sub17                      4.14       0.00       0.00       1.32       2.77       0.00       2.77        0.02     7.94   0.670
  sub22                      4.14       0.00       0.00       1.78       2.32       0.00       2.32        0.15    45.73   0.560
  sub23                      4.14       0.00       0.00       1.53       2.56       0.00       2.56        0.12    38.83   0.620
  sub60                      4.14       0.00       0.00       0.50       2.44       0.00       2.44        0.74    64.07   0.589
  sub61                      4.14       0.00       0.00       0.70       2.63       0.00       2.63        0.81    81.53   0.634
  sub62                      4.14       0.00       0.00       0.33       2.81       0.00       2.81        0.86    82.97   0.679
  sub63                      4.14       0.00       0.00       1.20       2.34       0.00       2.34        0.71    76.55   0.566
  sub64                      4.14       0.00       0.00       0.62       2.33       0.00       2.33        0.71    60.80   0.562
  sub65                      4.14       0.00       0.00       0.54       2.36       0.00       2.36        0.72    61.64   0.569
  sub66                      4.14       0.00       0.00       1.20       2.04       0.00       2.04        0.62    55.96   0.492
  sub67                      4.14       0.00       0.00       0.33       3.11       0.00       3.11        0.96   107.98   0.751
  sub68                      4.14       0.00       0.00       0.58       2.80       0.00       2.80        0.86    90.49   0.676
  sub69                      4.14       0.00       0.00       0.62       3.04       0.00       3.04        0.71    91.29   0.734
  sub70                      4.14       3.10       0.00       2.46       3.69       0.00       3.69        0.84    71.64   0.509
  sub71                      4.14       0.00       0.00       0.33       2.68       0.00       2.68        0.63    57.61   0.647
  sub72                      4.14       0.00       0.00       0.29       1.86       0.00       1.86        0.38    26.96   0.449
  1                          4.14       3.59       0.00       1.30       3.72       0.41       4.13        0.97    66.58   0.534
  2                          4.14       0.00       0.00       2.88       0.92       0.12       1.04        0.41    55.33   0.250
  
  
  ****************************
  Subcatchment Washoff Summary
  ****************************
  
  ------------------------------------------------------------------------------------------
                                 COD            SS            TN            TP         NH4-N
  Subcatchment                    kg            kg            kg            kg            kg
  ------------------------------------------------------------------------------------------
  sub0                         0.531         0.962         0.009         0.001         0.004
  sub1                         2.134         3.892         0.041         0.003         0.019
  sub2                         1.216         2.132         0.028         0.002         0.013
  sub3                         2.902         5.005         0.066         0.004         0.030
  sub4                         4.609         8.294         0.097         0.005         0.046
  sub5                         4.873         8.775         0.086         0.006         0.041
  sub7                         1.153         2.154         0.022         0.001         0.011
  sub8                         1.751         3.330         0.036         0.002         0.017
  sub9                         1.471         2.760         0.029         0.002         0.014
  sub10                        4.085         7.463         0.075         0.005         0.036
  sub11                        4.110         7.634         0.078         0.005         0.037
  sub12                        3.445         6.308         0.062         0.005         0.030
  sub14                        3.104         5.768         0.060         0.004         0.029
  sub15                        3.587         6.340         0.072         0.005         0.033
  sub16                        2.307         4.094         0.045         0.003         0.021
  sub17                        2.098         3.686         0.040         0.003         0.018
  sub22                       10.568        18.294         0.210         0.015         0.096
  sub23                        6.639        11.952         0.153         0.010         0.069
  sub60                       32.508        52.686         0.718         0.040         0.342
  sub61                       41.673        67.391         0.831         0.053         0.398
  sub62                       44.136        72.706         0.942         0.055         0.449
  sub63                       31.594        50.578         0.711         0.047         0.321
  sub64                       37.826        58.954         0.746         0.051         0.352
  sub65                       38.795        60.731         0.772         0.052         0.365
  sub66                       23.410        36.988         0.547         0.033         0.251
  sub67                       66.493       108.837         1.231         0.086         0.591
  sub68                       47.348        77.593         0.981         0.061         0.464
  sub69                       45.187        75.395         0.899         0.059         0.425
  sub70                       65.948       109.823         1.440         0.094         0.660
  sub71                       29.269        48.582         0.672         0.036         0.320
  sub72                       17.739        27.076         0.361         0.023         0.173
  1                           30.890        51.852         0.704         0.046         0.317
  2                            5.233         8.275         0.181         0.011         0.075
  ------------------------------------------------------------------------------------------
  System                     618.633      1016.313        12.945         0.826         6.068
  
  
  ******************
  Node Depth Summary
  ******************
  
  ---------------------------------------------------------------------------------
                                 Average  Maximum  Maximum  Time of Max    Reported
                                   Depth    Depth      HGL   Occurrence   Max Depth
  Node                 Type       Meters   Meters   Meters  days hr:min      Meters
  ---------------------------------------------------------------------------------
  WS02001211           JUNCTION     0.64     0.78     5.62     0  03:00        0.78
  WS02001212           JUNCTION     0.36     0.48     5.55     0  03:00        0.48
  WS02001213           JUNCTION     0.58     0.72     5.49     0  02:59        0.72
  WS02003069           JUNCTION     0.35     0.52     5.11     0  02:58        0.52
  WS02003072           JUNCTION     0.42     0.58     4.96     0  02:58        0.58
  WS02003073           JUNCTION     0.25     0.36     4.42     0  02:59        0.36
  WS02003060           JUNCTION     0.32     0.46     5.39     0  02:57        0.46
  WS02003066           JUNCTION     0.16     0.26     5.81     0  07:44        0.26
  WS02003059           JUNCTION     0.63     0.77     5.46     0  02:58        0.77
  WS02003067           JUNCTION     0.43     0.63     5.95     0  07:44        0.63
  WS02004401           JUNCTION     0.51     0.74     6.74     0  07:40        0.74
  WS02004402           JUNCTION     0.54     0.77     6.73     0  07:40        0.77
  WS02004403           JUNCTION     0.57     0.79     6.72     0  07:40        0.79
  WS02004404           JUNCTION     0.64     0.87     6.72     0  07:40        0.87
  WS02004406           JUNCTION     0.66     0.87     6.70     0  07:41        0.87
  WS02004409           JUNCTION     0.30     0.55     6.32     0  07:43        0.55
  WS02004410           JUNCTION     0.33     0.57     6.29     0  07:43        0.57
  WS02004411           JUNCTION     0.35     0.59     6.27     0  07:44        0.59
  WS02004412           JUNCTION     0.38     0.60     6.24     0  07:44        0.60
  WS02004413           JUNCTION     0.54     0.77     6.24     0  07:44        0.77
  WS02004405           JUNCTION     0.64     0.86     6.71     0  07:40        0.86
  WS02006109           JUNCTION     0.56     0.91     7.53     0  07:32        0.90
  WS02006110           JUNCTION     0.58     0.87     7.45     0  07:32        0.86
  WS02006111           JUNCTION     0.15     0.27     6.97     0  07:33        0.26
  WS02006112           JUNCTION     0.66     0.92     6.80     0  07:39        0.92
  WS02006113           JUNCTION     0.22     0.42     7.31     0  07:33        0.42
  WS02006115           JUNCTION     0.39     0.63     6.77     0  07:40        0.63
  WS02006116           JUNCTION     0.47     0.71     6.75     0  07:40        0.71
  WS02006230           JUNCTION     0.48     0.96     7.70     0  07:32        0.94
  WS02006231           JUNCTION     0.28     0.68     7.80     0  07:32        0.66
  WS02006232           JUNCTION     0.39     0.87     7.91     0  07:32        0.82
  WS02006234           JUNCTION     0.29     0.88     8.04     0  07:32        0.80
  WS02006235           JUNCTION     0.32     0.95     8.11     0  07:32        0.88
  WS02006238           JUNCTION     0.34     0.97     8.11     0  07:32        0.90
  WS02006240           JUNCTION     0.24     0.94     8.23     0  07:31        0.84
  WS02006242           JUNCTION     0.28     1.00     8.27     0  07:33        0.93
  WS02006243           JUNCTION     0.18     0.85     8.27     0  07:32        0.82
  WS02006245           JUNCTION     0.17     0.81     8.30     0  07:31        0.80
  WS02006247           JUNCTION     0.18     0.82     8.32     0  07:32        0.81
  WS02006248           JUNCTION     0.13     0.74     8.32     0  07:32        0.72
  WS02006249           JUNCTION     0.16     0.86     8.46     0  07:31        0.67
  WS02006239           JUNCTION     0.29     0.98     8.19     0  07:31        0.88
  WS02006251           JUNCTION     0.13     0.68     8.35     0  07:32        0.67
  WS02006252           JUNCTION     0.09     0.59     8.83     0  07:30        0.58
  WS02006253           JUNCTION     0.17     0.71     8.36     0  07:32        0.71
  WS02006256           JUNCTION     1.10     2.35     9.28     0  00:00        2.35
  WS02004138           JUNCTION     0.14     0.20     7.45     0  00:00        0.19
  WS02004139           JUNCTION     0.58     0.72     5.63     0  03:01        0.72
  WS02004407           JUNCTION     0.14     0.25     6.57     0  07:41        0.25
  WS02006228           JUNCTION     0.54     0.93     7.58     0  07:32        0.90
  WS02006229           JUNCTION     0.51     0.90     7.60     0  07:32        0.88
  WS02006280           JUNCTION     0.05     0.14     8.41     0  02:15        0.14
  WS02006284           JUNCTION     0.34     0.47     8.87     0  02:15        0.47
  WS02006287           JUNCTION     0.07     0.20     9.15     0  02:14        0.20
  WSF200               JUNCTION     0.13     0.24     5.47     0  07:44        0.24
  HS02004901           JUNCTION     0.10     0.22    10.04     0  02:12        0.22
  HS02004881           JUNCTION     0.01     0.02     9.05     0  02:14        0.02
  HS02004876           JUNCTION     0.03     0.10     9.13     0  02:13        0.10
  HS02004870           JUNCTION     0.01     0.04     9.32     0  02:14        0.04
  HS02004862           JUNCTION     0.01     0.04     9.43     0  02:15        0.04
  HS02004856           JUNCTION     0.07     0.10     9.53     0  02:15        0.10
  HS02004852           JUNCTION     0.01     0.02     9.54     0  02:16        0.02
  HS02004848           JUNCTION     0.01     0.02     9.63     0  02:13        0.02
  HS02004842           JUNCTION     0.32     0.36     9.63     0  02:13        0.36
  HS02004837           JUNCTION     0.02     0.05     9.63     0  02:13        0.05
  HS02004830           JUNCTION     0.04     0.06     9.53     0  02:14        0.06
  HS02004824           JUNCTION     0.02     0.04     9.44     0  02:17        0.04
  HS02004817           JUNCTION     0.41     0.51     9.36     0  02:15        0.51
  HS02004807           JUNCTION     0.10     0.19     9.36     0  02:15        0.19
  HS02004802           JUNCTION     0.14     0.23     9.35     0  02:15        0.23
  HS02004799           JUNCTION     0.09     0.24     9.45     0  02:13        0.24
  HS02004792           JUNCTION     0.02     0.09     9.61     0  02:12        0.09
  HS02004788           JUNCTION     0.02     0.07     9.97     0  02:13        0.07
  HS02004785           JUNCTION     0.03     0.12    10.03     0  02:13        0.12
  HS02004777           JUNCTION     0.12     0.24    10.04     0  02:13        0.24
  HS02004770           JUNCTION     0.09     0.21    10.04     0  02:12        0.21
  HS02004480           JUNCTION     0.06     0.18     9.43     0  02:13        0.18
  HS02004479           JUNCTION     0.09     0.22     9.43     0  02:13        0.22
  HS02004478           JUNCTION     0.05     0.12     9.34     0  02:14        0.12
  YS02001745           JUNCTION     0.43     0.84     8.36     0  06:47        0.84
  YS02001748           JUNCTION     0.75     1.28     8.36     0  06:47        1.28
  YS02001751           JUNCTION     0.91     1.48     8.36     0  07:20        1.48
  YS02001754           JUNCTION     1.13     1.75     8.36     0  07:21        1.75
  YS02001762           JUNCTION     1.31     1.97     8.37     0  07:22        1.96
  YS02001765           JUNCTION     1.27     1.91     8.36     0  07:20        1.91
  YS02001767           JUNCTION     1.24     1.87     8.36     0  06:44        1.87
  YS02001770           JUNCTION     1.23     1.87     8.36     0  06:44        1.87
  YS02001774           JUNCTION     1.29     1.94     8.37     0  07:20        1.94
  YS02001779           JUNCTION     1.06     1.68     8.36     0  06:44        1.68
  YS02001882           JUNCTION     0.24     0.42     7.13     0  02:46        0.42
  YS02001884           JUNCTION     0.33     0.52     7.13     0  02:46        0.52
  YS02001759           JUNCTION     1.35     2.00     8.36     0  07:21        2.00
  YS02001887           JUNCTION     0.40     0.60     7.13     0  02:46        0.60
  YS02001890           JUNCTION     0.43     0.63     7.13     0  02:46        0.63
  YS02001898           JUNCTION     0.21     0.38     7.12     0  02:47        0.38
  YS02001901           JUNCTION     0.32     0.51     7.12     0  02:48        0.51
  YS02001904           JUNCTION     0.30     0.48     7.11     0  02:48        0.48
  YS02001907           JUNCTION     0.62     0.83     7.12     0  02:47        0.83
  YS02001910           JUNCTION     0.41     0.61     7.12     0  02:47        0.61
  YS02001915           JUNCTION     0.23     0.40     7.11     0  02:47        0.40
  YS02001918           JUNCTION     0.07     0.09     7.16     0  03:03        0.09
  YS02001619           JUNCTION     0.87     1.45     8.38     0  07:31        1.44
  YS02001629           JUNCTION     1.18     1.82     8.37     0  07:08        1.82
  YS02001641           JUNCTION     1.28     1.92     8.36     0  07:22        1.92
  YS02001644           JUNCTION     1.29     1.92     8.35     0  06:32        1.92
  YS02001652           JUNCTION     1.14     1.77     8.37     0  07:20        1.76
  YS02001655           JUNCTION     0.93     1.51     8.36     0  07:20        1.51
  YS02001920           JUNCTION     0.16     0.19     7.20     0  03:02        0.19
  YS02001923           JUNCTION     0.05     0.08     7.34     0  03:01        0.08
  YS02001926           JUNCTION     0.12     0.16     7.61     0  03:01        0.16
  YS02001929           JUNCTION     0.05     0.08     7.77     0  03:01        0.08
  YS02001658           JUNCTION     0.70     1.22     8.36     0  06:48        1.22
  YS02001661           JUNCTION     0.53     0.96     8.36     0  06:48        0.96
  YS02001664           JUNCTION     0.21     0.44     8.36     0  06:48        0.44
  YS02001622           JUNCTION     0.89     1.47     8.37     0  07:31        1.46
  YS02001633           JUNCTION     1.27     1.92     8.37     0  07:21        1.91
  YS02001649           JUNCTION     1.32     1.97     8.36     0  07:20        1.97
  YS02001757           JUNCTION     1.44     2.10     8.36     0  06:44        2.10
  YS02001895           JUNCTION     0.21     0.38     7.13     0  02:47        0.38
  YS02001625           JUNCTION     1.15     1.77     8.37     0  07:21        1.76
  YS02163301           JUNCTION     1.21     1.85     8.37     0  07:21        1.85
  YS02163601           JUNCTION     1.32     1.96     8.36     0  07:21        1.96
  YS02164001           JUNCTION     1.26     1.90     8.36     0  07:21        1.90
  YS02001647           JUNCTION     1.13     1.75     8.36     0  07:20        1.74
  YSB1154              JUNCTION     0.22     0.37     9.43     0  02:13        0.37
  YSB6556              JUNCTION     0.12     0.26     9.43     0  02:13        0.26
  YSB1174              JUNCTION     0.18     0.32     9.43     0  02:13        0.32
  YSB1171              JUNCTION     0.37     0.52     9.43     0  02:13        0.52
  YS02006553           JUNCTION     0.62     0.83     7.11     0  02:47        0.83
  YS02006561           JUNCTION     0.11     0.21     6.87     0  02:48        0.21
  YS02006556           JUNCTION     0.60     0.80     7.11     0  02:48        0.80
  YS02006558           JUNCTION     0.64     0.84     7.11     0  02:48        0.84
  YS02001783           JUNCTION     0.20     0.52     6.66     0  05:01        0.50
  YS02001784           JUNCTION     0.24     0.59     6.65     0  05:01        0.58
  YS02001786           JUNCTION     0.21     0.61     6.64     0  05:00        0.61
  YS02001788           JUNCTION     0.16     0.65     6.63     0  05:00        0.65
  YS02001790           JUNCTION     0.22     0.98     6.62     0  05:00        0.97
  YS02001791           JUNCTION     0.19     1.14     6.61     0  05:01        1.14
  YS02001793           JUNCTION     0.27     1.77     6.61     0  05:00        1.77
  WSC                  OUTFALL      0.25     0.36     1.03     0  02:59        0.36
  JK-storage           STORAGE      1.74     5.80     6.60     0  04:59        5.80
  CC-storage           STORAGE      0.78     1.36     8.36     0  06:43        1.36
  XR-storage           STORAGE      2.31     6.02     4.02     0  06:35        6.02
  
  
  *******************
  Node Inflow Summary
  *******************
  
  -------------------------------------------------------------------------------------------------
                                  Maximum  Maximum                  Lateral       Total        Flow
                                  Lateral    Total  Time of Max      Inflow      Inflow     Balance
                                   Inflow   Inflow   Occurrence      Volume      Volume       Error
  Node                 Type           LPS      LPS  days hr:min    10^6 ltr    10^6 ltr     Percent
  -------------------------------------------------------------------------------------------------
  WS02001211           JUNCTION      7.35   388.74     0  03:12       0.207        7.75       0.526
  WS02001212           JUNCTION      0.00   390.01     0  03:12           0        7.71       0.344
  WS02001213           JUNCTION      0.00   391.31     0  03:12           0        7.68       0.354
  WS02003069           JUNCTION      0.32   776.68     0  02:57     0.00902        11.4       0.313
  WS02003072           JUNCTION      0.00   776.67     0  02:58           0        11.3       0.378
  WS02003073           JUNCTION      1.82   778.49     0  02:58      0.0514        11.4       0.441
  WS02003060           JUNCTION     16.53   776.34     0  02:57       0.466        11.4       0.295
  WS02003066           JUNCTION      0.00   381.92     0  07:44           0        3.34       0.139
  WS02003059           JUNCTION      0.00   393.56     0  03:11           0        7.65       0.528
  WS02003067           JUNCTION      0.00   381.80     0  07:44           0        3.34       0.286
  WS02004401           JUNCTION      0.00   414.52     0  07:34           0        3.57       0.569
  WS02004402           JUNCTION      0.00   401.31     0  07:38           0        3.55       0.542
  WS02004403           JUNCTION      0.00   398.01     0  07:39           0        3.53       0.499
  WS02004404           JUNCTION      0.16   397.30     0  07:40     0.00457        3.52       0.380
  WS02004406           JUNCTION      0.00   397.03     0  07:40           0        3.49       0.939
  WS02004409           JUNCTION      0.00   396.75     0  07:41           0        3.45       0.469
  WS02004410           JUNCTION      0.00   391.57     0  07:42           0        3.43       0.543
  WS02004411           JUNCTION      0.00   387.20     0  07:42           0        3.42       0.564
  WS02004412           JUNCTION      0.00   384.53     0  07:43           0         3.4       0.614
  WS02004413           JUNCTION      0.00   382.78     0  07:43           0        3.38       0.917
  WS02004405           JUNCTION      0.04   397.07     0  07:40     0.00107        3.51       0.568
  WS02006109           JUNCTION      1.23   471.99     0  07:32      0.0347        3.66       0.444
  WS02006110           JUNCTION      0.00   471.95     0  07:32           0        3.64       0.452
  WS02006111           JUNCTION      0.00   476.91     0  07:33           0        3.62       0.104
  WS02006112           JUNCTION      7.94   465.12     0  07:33      0.0238        3.64       0.804
  WS02006113           JUNCTION      0.00   468.80     0  07:32           0        3.62       0.205
  WS02006115           JUNCTION      0.00   452.03     0  07:33           0        3.61       0.522
  WS02006116           JUNCTION      0.00   436.10     0  07:33           0        3.59       0.450
  WS02006230           JUNCTION     10.28   471.95     0  07:32        0.29        2.82       0.375
  WS02006231           JUNCTION      0.00   481.09     0  07:32           0        2.54       0.251
  WS02006232           JUNCTION      0.00   480.51     0  07:32           0        2.56       0.680
  WS02006234           JUNCTION      0.00   479.19     0  07:32           0        2.56       0.060
  WS02006235           JUNCTION      0.00   479.62     0  07:32           0        2.73       0.440
  WS02006238           JUNCTION      0.00   316.26     0  07:32           0       0.766       0.626
  WS02006240           JUNCTION      0.00   316.92     0  07:32           0       0.633       0.916
  WS02006242           JUNCTION      0.00   316.79     0  07:32           0       0.571       1.110
  WS02006243           JUNCTION      0.00   309.62     0  07:32           0       0.522      -0.191
  WS02006245           JUNCTION      0.00   334.52     0  07:33           0       0.508       1.183
  WS02006247           JUNCTION      0.00   349.82     0  07:30           0       0.499       0.263
  WS02006248           JUNCTION      0.00   363.29     0  07:30           0       0.494      -0.129
  WS02006249           JUNCTION      0.00   373.25     0  07:30           0       0.496       0.712
  WS02006239           JUNCTION      0.00   311.97     0  07:33           0       0.703       0.745
  WS02006251           JUNCTION      0.08   399.43     0  07:30     0.00217        0.51      -0.087
  WS02006252           JUNCTION      0.00   398.89     0  07:30           0       0.362       0.068
  WS02006253           JUNCTION      1.17    72.71     0  07:32     0.00308       0.147       0.177
  WS02006256           JUNCTION      0.00   983.00     0  02:40           0        3.76       0.003
  WS02004138           JUNCTION      0.00   380.00     0  00:00           0        7.58       0.076
  WS02004139           JUNCTION      0.32   395.85     0  00:00     0.00905        7.58       0.608
  WS02004407           JUNCTION      0.00   396.82     0  07:41           0        3.46       0.198
  WS02006228           JUNCTION      0.00   471.76     0  07:32           0        3.64       0.355
  WS02006229           JUNCTION      0.00   469.08     0  07:32           0        3.65       0.390
  WS02006280           JUNCTION      0.00   184.76     0  02:15           0       0.838       0.009
  WS02006284           JUNCTION      0.10   184.75     0  02:14      0.0027       0.839       0.135
  WS02006287           JUNCTION      0.00   184.66     0  02:14           0       0.837       0.085
  WSF200               JUNCTION      0.00   381.90     0  07:44           0        3.33       0.129
  HS02004901           JUNCTION      9.78     9.78     0  02:07      0.0286      0.0288       6.506
  HS02004881           JUNCTION      4.01    34.77     0  02:14      0.0125        0.13       0.047
  HS02004876           JUNCTION      6.51    31.03     0  02:14      0.0239       0.118       0.442
  HS02004870           JUNCTION      7.14    24.69     0  02:14      0.0236      0.0947       0.113
  HS02004862           JUNCTION      5.98    18.05     0  02:14      0.0292      0.0712       0.233
  HS02004856           JUNCTION      5.30    12.14     0  02:14      0.0178      0.0435       3.424
  HS02004852           JUNCTION      0.00     7.20     0  02:14           0      0.0257       0.191
  HS02004848           JUNCTION     11.88    11.88     0  02:16      0.0562      0.0562       0.078
  HS02004842           JUNCTION      0.00     5.04     0  02:25           0      0.0435      42.665
  HS02004837           JUNCTION     17.87    22.30     0  02:13        0.22       0.251       0.326
  HS02004830           JUNCTION      0.15    22.43     0  02:13     0.00423       0.241       0.514
  HS02004824           JUNCTION     13.33    35.63     0  02:17      0.0737       0.313       0.172
  HS02004817           JUNCTION      0.60    36.22     0  02:17      0.0169        0.33       5.321
  HS02004807           JUNCTION     13.39    48.49     0  02:15      0.0435       0.357       1.200
  HS02004802           JUNCTION      0.00    48.67     0  02:16           0       0.352       1.162
  HS02004799           JUNCTION     10.36   115.97     0  02:12      0.0351        0.43       0.545
  HS02004792           JUNCTION     46.01   105.83     0  02:12       0.154       0.395       0.106
  HS02004788           JUNCTION     15.76    61.56     0  02:13      0.0959       0.242       0.162
  HS02004785           JUNCTION      0.15    46.24     0  02:12     0.00423       0.148       0.324
  HS02004777           JUNCTION      0.03    46.62     0  02:10    0.000846       0.148       3.613
  HS02004770           JUNCTION     38.83    47.69     0  02:09       0.122       0.149       2.119
  HS02004480           JUNCTION      0.00   136.73     0  02:13           0       0.501       0.140
  HS02004479           JUNCTION      0.00    21.24     0  02:15           0      0.0829       0.888
  HS02004478           JUNCTION      0.00   184.66     0  02:14           0       0.838       0.071
  YS02001745           JUNCTION     64.07   159.28     0  04:00       0.738       0.773       1.509
  YS02001748           JUNCTION      0.04   195.37     0  04:00     0.00127        0.77       3.212
  YS02001751           JUNCTION      0.01   162.50     0  03:52     0.00031       0.712       3.361
  YS02001754           JUNCTION      0.26    87.49     0  03:57     0.00733        0.69       3.782
  YS02001762           JUNCTION      0.00   100.93     0  03:01           0       0.784       2.935
  YS02001765           JUNCTION      0.00    98.34     0  02:50           0       0.787       3.343
  YS02001767           JUNCTION      0.54   123.24     0  03:05      0.0151        0.81       4.706
  YS02001770           JUNCTION     83.12   123.05     0  03:02       0.867       0.885       3.961
  YS02001774           JUNCTION      0.00    47.48     0  03:02           0      0.0759      53.639
  YS02001779           JUNCTION      0.01    48.60     0  03:04    0.000141      0.0318     101.143
  YS02001882           JUNCTION      0.00     3.29     0  02:04           0     0.00471      52.173
  YS02001884           JUNCTION      0.00     9.72     0  02:07           0       0.019      33.259
  YS02001759           JUNCTION     81.57   180.24     0  03:01        0.81        1.56       1.592
  YS02001887           JUNCTION    108.43   108.43     0  02:36       0.971       0.981       0.720
  YS02001890           JUNCTION      0.00   107.53     0  02:39           0       0.958       0.809
  YS02001898           JUNCTION      0.00   107.04     0  02:42           0       0.947       0.219
  YS02001901           JUNCTION      0.00   106.87     0  02:42           0       0.946       0.573
  YS02001904           JUNCTION      0.00   106.63     0  02:44           0       0.945       0.532
  YS02001907           JUNCTION      0.00   192.62     0  02:49           0        2.02       1.093
  YS02001910           JUNCTION      0.00    87.24     0  02:59           0        1.08       0.928
  YS02001915           JUNCTION     57.63    86.83     0  02:57       0.633        1.09       0.404
  YS02001918           JUNCTION      0.00    29.86     0  03:02           0       0.457       0.232
  YS02001619           JUNCTION     55.96    55.96     0  02:51       0.624       0.624       2.123
  YS02001629           JUNCTION      0.00    90.09     0  03:08           0       0.542       5.923
  YS02001641           JUNCTION      0.00   123.73     0  03:03           0        1.16       1.961
  YS02001644           JUNCTION     60.83   198.49     0  06:49       0.708        2.03       1.368
  YS02001652           JUNCTION      0.00    88.83     0  03:03           0        0.64       3.969
  YS02001655           JUNCTION      0.15   128.51     0  02:58     0.00434       0.665       3.959
  YS02001920           JUNCTION      2.87    29.87     0  03:02      0.0809       0.459       0.428
  YS02001923           JUNCTION      0.04    27.00     0  03:01     0.00106       0.379       0.075
  YS02001926           JUNCTION      0.05    27.00     0  03:01     0.00147        0.38       0.536
  YS02001929           JUNCTION     26.96    26.96     0  03:01       0.378       0.378       0.073
  YS02001658           JUNCTION      0.00   127.19     0  03:57           0       0.692       3.640
  YS02001661           JUNCTION      0.00    93.54     0  03:57           0       0.712       3.060
  YS02001664           JUNCTION     76.55    76.55     0  02:38       0.709       0.709       0.651
  YS02001622           JUNCTION      0.00    79.15     0  03:08           0       0.611       5.621
  YS02001633           JUNCTION     61.84   121.86     0  03:04       0.729        1.22       2.738
  YS02001649           JUNCTION      0.00   266.03     0  03:03           0         2.4       1.652
  YS02001757           JUNCTION      0.00   445.65     0  02:51           0        4.39       2.194
  YS02001895           JUNCTION      0.00   107.26     0  02:40           0        0.95       0.378
  YS02001625           JUNCTION      0.00    80.91     0  04:02           0       0.579       7.308
  YS02163301           JUNCTION      0.00    70.06     0  03:08           0       0.519       5.098
  YS02163601           JUNCTION      0.11   126.80     0  03:03      0.0031        1.19       2.690
  YS02164001           JUNCTION      0.00   125.71     0  03:03           0        1.16       1.946
  YS02001647           JUNCTION      0.00   176.65     0  03:03           0        1.85       1.625
  YSB1154              JUNCTION     11.57    11.57     0  02:11      0.0426      0.0438       3.410
  YSB6556              JUNCTION      0.00    11.51     0  02:13           0      0.0447       2.860
  YSB1174              JUNCTION     11.02    11.02     0  02:07       0.031      0.0319       4.197
  YSB1171              JUNCTION      0.00    21.25     0  02:12           0      0.0821       8.335
  YS02006553           JUNCTION      0.00   192.70     0  02:50           0        2.01       0.710
  YS02006561           JUNCTION      0.00   283.06     0  02:48           0        2.84       0.022
  YS02006556           JUNCTION      0.00   192.75     0  02:50           0        2.01       0.511
  YS02006558           JUNCTION     91.37   283.06     0  02:48       0.885        2.87       0.156
  YS02001783           JUNCTION      0.00   283.06     0  02:48           0        2.84       0.051
  YS02001784           JUNCTION      1.06   284.12     0  02:48      0.0299        2.87       0.085
  YS02001786           JUNCTION      0.06   284.17     0  02:48     0.00159        2.87       0.083
  YS02001788           JUNCTION      0.07   289.62     0  03:33       0.002        2.87       0.048
  YS02001790           JUNCTION      0.15   345.08     0  03:33     0.00437        2.87       0.031
  YS02001791           JUNCTION      0.00   384.88     0  03:33           0        2.87       0.037
  YS02001793           JUNCTION      0.00   428.33     0  03:35           0        2.88       0.045
  WSC                  OUTFALL       0.00   778.49     0  02:59           0        11.3       0.000
  JK-storage           STORAGE       0.00   774.43     0  02:36           0        3.03     -19.703
  CC-storage           STORAGE       0.00   443.16     0  02:52           0        4.14       1.568
  XR-storage           STORAGE     314.15   314.15     0  02:49        7.02        7.62      -0.526
  
  
  **********************
  Node Surcharge Summary
  **********************
  
  Surcharging occurs when water rises above the top of the highest conduit.
  ---------------------------------------------------------------------
                                               Max. Height   Min. Depth
                                   Hours       Above Crown    Below Rim
  Node                 Type      Surcharged         Meters       Meters
  ---------------------------------------------------------------------
  WS02006109           JUNCTION        0.13          0.089        1.731
  WS02006232           JUNCTION        0.16          0.169        1.311
  WS02006234           JUNCTION        0.07          0.162        1.078
  WS02006235           JUNCTION        0.13          0.236        1.054
  WS02006238           JUNCTION        0.14          0.251        1.179
  WS02006240           JUNCTION        0.07          0.231        1.159
  WS02006242           JUNCTION        0.10          0.270        0.550
  WS02006243           JUNCTION        0.04          0.140        0.630
  WS02006245           JUNCTION        0.02          0.102        0.748
  WS02006247           JUNCTION        0.03          0.107        0.653
  WS02006248           JUNCTION        0.01          0.017        0.363
  WS02006249           JUNCTION        0.01          0.158        0.232
  WS02006239           JUNCTION        0.10          0.241        1.049
  WS02006252           JUNCTION        0.13          0.185        0.915
  WS02006256           JUNCTION        5.30          2.050        0.000
  WS02006228           JUNCTION        0.13          0.098        2.102
  YS02001748           JUNCTION        2.55          0.203        0.987
  YS02001751           JUNCTION        3.60          0.484        0.716
  YS02001754           JUNCTION        4.21          0.703        0.447
  YS02001762           JUNCTION        4.97          0.965        0.185
  YS02001765           JUNCTION        4.80          0.914        0.186
  YS02001767           JUNCTION        4.70          0.872        0.158
  YS02001770           JUNCTION        4.59          0.837        0.083
  YS02001774           JUNCTION        4.90          0.943        0.107
  YS02001779           JUNCTION        4.12          0.676        0.004
  YS02001759           JUNCTION        5.09          0.999        0.211
  YS02001619           JUNCTION        3.43          0.448        0.162
  YS02001629           JUNCTION        3.43          0.437        0.033
  YS02001641           JUNCTION        4.86          0.924        0.176
  YS02001644           JUNCTION        4.88          0.920        0.000
  YS02001652           JUNCTION        4.30          0.740        0.390
  YS02001655           JUNCTION        3.67          0.512        0.688
  YS02001658           JUNCTION        2.62          0.218        1.082
  YS02001622           JUNCTION        3.51          0.471        0.149
  YS02001633           JUNCTION        4.75          0.899        0.161
  YS02001649           JUNCTION        5.01          0.972        0.078
  YS02001757           JUNCTION        5.33          1.098        0.112
  YS02001625           JUNCTION        4.38          0.766        0.014
  YS02163301           JUNCTION        4.63          0.850        0.180
  YS02163601           JUNCTION        5.00          0.965        0.115
  YS02164001           JUNCTION        4.80          0.903        0.197
  YS02001647           JUNCTION        4.35          0.748        0.152
  YS02001790           JUNCTION        0.27          0.179        0.978
  YS02001791           JUNCTION        0.50          0.343        1.577
  YS02001793           JUNCTION        1.01          0.774        1.826
  
  
  *********************
  Node Flooding Summary
  *********************
  
  Flooding refers to all water that overflows a node, whether it ponds or not.
  --------------------------------------------------------------------------
                                                             Total   Maximum
                                 Maximum   Time of Max       Flood    Ponded
                        Hours       Rate    Occurrence      Volume     Depth
  Node                 Flooded       LPS   days hr:min    10^6 ltr    Meters
  --------------------------------------------------------------------------
  WS02006256              1.56    766.62      0  07:32       1.657     0.000
  YS02001644              0.88    198.45      0  06:49       0.329     0.000
  JK-storage              0.02     40.77      0  04:59       0.001     0.000
  
  
  **********************
  Storage Volume Summary
  **********************
  
  --------------------------------------------------------------------------------------------------
                         Average     Avg  Evap Exfil       Maximum     Max    Time of Max    Maximum
                          Volume    Pcnt  Pcnt  Pcnt        Volume    Pcnt     Occurrence    Outflow
  Storage Unit           1000 m3    Full  Loss  Loss       1000 m3    Full    days hr:min        LPS
  --------------------------------------------------------------------------------------------------
  JK-storage               0.087      30     0     0         0.291     100       0  04:59     983.00
  CC-storage               2.171      14     0     0         3.798      24       0  06:43     398.89
  XR-storage               0.277      30     0     0         0.723      78       0  06:35     380.00
  
  
  ***********************
  Outfall Loading Summary
  ***********************
  
  ---------------------------------------------------------------------------------------------------------------------------------
                         Flow       Avg       Max       Total         Total         Total         Total         Total         Total
                         Freq      Flow      Flow      Volume           COD            SS            TN            TP         NH4-N
  Outfall Node           Pcnt       LPS       LPS    10^6 ltr            kg            kg            kg            kg            kg
  ---------------------------------------------------------------------------------------------------------------------------------
  WSC                   99.96    406.09    778.49      11.303      1700.587      2737.550       152.671        18.906        94.939
  ---------------------------------------------------------------------------------------------------------------------------------
  System                99.96    406.09    778.49      11.303      1700.587      2737.550       152.671        18.906        94.939
  
  
  ********************
  Link Flow Summary
  ********************
  
  -----------------------------------------------------------------------------
                                 Maximum  Time of Max   Maximum    Max/    Max/
                                  |Flow|   Occurrence   |Veloc|    Full    Full
  Link                 Type          LPS  days hr:min     m/sec    Flow   Depth
  -----------------------------------------------------------------------------
  WS02003066WSF200     CONDUIT    381.90     0  07:44      2.66    0.06    0.18
  WS02006287WS02006284 CONDUIT    184.65     0  02:14      1.56    0.09    0.21
  WS02006284WS02006280 CONDUIT    184.76     0  02:15      1.80    0.08    0.19
  WS02006280WS02006229 CONDUIT    184.76     0  02:15      2.90    0.04    0.14
  WS02006229WS02006228 CONDUIT    471.76     0  07:32      1.02    1.56    1.00
  WS02006256WS02006235 CONDUIT    288.92     0  00:00      4.23    3.06    1.00
  WS02006253WS02006251 CONDUIT     72.31     0  07:32      0.47    0.22    0.98
  WS02006252WS02006251 CONDUIT    399.36     0  07:30      3.18    1.47    1.00
  WS02006251WS02006249 CONDUIT    373.25     0  07:30      1.11    1.08    0.97
  WS02006249WS02006248 CONDUIT    363.29     0  07:30      1.14    1.99    0.98
  WS02006248WS02006247 CONDUIT    349.82     0  07:30      1.08    0.76    1.00
  WS02006247WS02006245 CONDUIT    334.52     0  07:33      1.02    2.65    1.00
  WS02006245WS02006243 CONDUIT    309.62     0  07:32      1.05    0.92    1.00
  WS02006243WS02006242 CONDUIT    316.79     0  07:32      0.90    0.68    1.00
  WS02006242WS02006240 CONDUIT    316.92     0  07:32      0.91    1.26    1.00
  WS02006240WS02006239 CONDUIT    311.97     0  07:33      0.92    0.98    1.00
  WS02006239WS02006238 CONDUIT    316.26     0  07:32      0.87    1.01    1.00
  WS02006238WS02006235 CONDUIT    312.93     0  07:33      1.45    0.70    1.00
  WS02006235WS02006234 CONDUIT    479.19     0  07:32      1.25    5.06    1.00
  WS02006234WS02006232 CONDUIT    480.51     0  07:32      1.39    0.97    1.00
  WS02006232WS02006231 CONDUIT    481.09     0  07:32      1.27    1.01    0.98
  WS02006231WS02006230 CONDUIT    461.67     0  07:32      1.42    7.00    0.89
  WS02006230WS02006229 CONDUIT    458.78     0  07:32      1.19   10.21    1.00
  WS02006228WS02006109 CONDUIT    470.76     0  07:32      0.94    2.06    1.00
  WS02006116WS02004401 CONDUIT    414.52     0  07:34      1.00    0.57    0.73
  WS02006115WS02006116 CONDUIT    436.10     0  07:33      1.02    0.56    0.64
  WS02006113WS02006111 CONDUIT    476.91     0  07:33      2.33    0.57    0.43
  WS02006112WS02006115 CONDUIT    452.03     0  07:33      0.78    0.27    0.77
  WS02006111WS02006112 CONDUIT    465.11     0  07:33      1.60    0.22    0.66
  WS02006110WS02006113 CONDUIT    468.80     0  07:32      1.14    0.43    0.76
  WS02006109WS02006110 CONDUIT    471.95     0  07:32      0.95    0.91    0.97
  WS02004411WS02004412 CONDUIT    384.53     0  07:43      0.80    0.55    0.59
  WS02004401WS02004402 CONDUIT    401.31     0  07:38      1.00    0.48    0.76
  WS02004413WS02003067 CONDUIT    381.80     0  07:44      0.92    0.16    0.52
  WS02004412WS02004413 CONDUIT    382.78     0  07:43      0.67    0.26    0.68
  WS02004410WS02004411 CONDUIT    387.20     0  07:42      0.90    0.53    0.58
  WS02004409WS02004410 CONDUIT    391.57     0  07:42      0.96    0.51    0.56
  WS02004407WS02004409 CONDUIT    396.75     0  07:41      1.46    0.14    0.40
  WS02004406WS02004407 CONDUIT    396.82     0  07:41      0.87    0.18    0.56
  WS02004405WS02004406 CONDUIT    397.03     0  07:40      1.10    0.78    0.87
  WS02004404WS02004405 CONDUIT    397.03     0  07:40      1.15    3.89    0.87
  WS02004403WS02004404 CONDUIT    397.14     0  07:40      0.98    0.29    0.83
  WS02004402WS02004403 CONDUIT    398.01     0  07:39      1.02    0.57    0.78
  WS02004139WS02001211 CONDUIT    381.39     0  03:12      0.90    0.48    0.58
  WS02004138WS02004139 CONDUIT    395.52     0  00:00      3.64    0.08    0.43
  WS02003067WS02003066 CONDUIT    381.92     0  07:44      1.00    0.12    0.37
  WS02001213WS02003059 CONDUIT    393.56     0  03:11      0.89    0.65    0.74
  WS02001212WS02001213 CONDUIT    391.31     0  03:12      1.32    0.60    0.44
  WS02001211WS02001212 CONDUIT    390.01     0  03:12      0.78    0.30    0.63
  WS02003072WS02003073 CONDUIT    776.67     0  02:58      1.61    1.68    0.44
  WS02003069WS02003072 CONDUIT    776.67     0  02:58      1.53    0.37    0.46
  WS02003060WS02003069 CONDUIT    776.36     0  02:57      1.78    0.30    0.41
  WS02003059WS02003060 CONDUIT    396.76     0  03:11      0.95    0.26    0.62
  HS02004901HS02004770 CONDUIT      9.07     0  02:11      0.04    0.03    0.31
  HS02004876HS02004881 CONDUIT     31.09     0  02:14      0.52    0.33    0.09
  HS02004870HS02004876 CONDUIT     24.67     0  02:14      0.37    0.02    0.10
  HS02004842HS02004848 CONDUIT      5.04     0  02:25      0.03    0.00    0.27
  HS02004837HS02004842 CONDUIT      5.22     0  02:25      0.42    0.00    0.29
  HS02004830HS02004837 CONDUIT     22.28     0  02:13      0.43    0.02    0.07
  HS02004824HS02004830 CONDUIT     22.43     0  02:14      0.47    0.03    0.07
  HS02004817HS02004824 CONDUIT     35.62     0  02:17      0.17    0.02    0.39
  HS02004770HS02004777 CONDUIT     46.59     0  02:10      0.21    0.09    0.32
  HS02004799HS02004480 CONDUIT    115.79     0  02:12      0.56    0.15    0.30
  HS02004792HS02004799 CONDUIT    105.77     0  02:12      0.64    0.06    0.23
  HS02004788HS02004792 CONDUIT     61.50     0  02:13      0.80    0.04    0.11
  HS02004785HS02004788 CONDUIT     46.10     0  02:13      0.48    0.35    0.14
  HS02004777HS02004785 CONDUIT     46.09     0  02:12      0.25    0.06    0.26
  HS02004480HS02004478 CONDUIT    136.73     0  02:13      0.92    0.58    0.21
  HS02004479HS02004480 CONDUIT     21.43     0  02:15      0.16    0.02    0.29
  HS02004862HS02004870 CONDUIT     18.01     0  02:15      0.45    0.02    0.06
  HS02004848HS02004852 CONDUIT      7.20     0  02:14      0.30    0.01    0.03
  HS02004856HS02004862 CONDUIT     12.11     0  02:15      0.33    0.01    0.05
  HS02004852HS02004856 CONDUIT      7.15     0  02:16      0.11    0.01    0.09
  HS02004802HS02004478 CONDUIT     48.92     0  02:17      0.29    0.04    0.24
  HS02004478WS02006287 CONDUIT    184.66     0  02:14      1.26    0.05    0.16
  HS02004817HS02004807 CONDUIT     36.62     0  02:18      0.10    0.02    0.50
  HS02004807HS02004802 CONDUIT     48.67     0  02:16      0.24    0.09    0.29
  YS02001759YS02001757 CONDUIT    184.21     0  03:01      0.23    0.13    1.00
  YS02001762YS02001759 CONDUIT    101.87     0  03:01      0.17    0.12    1.00
  YS02001765YS02001762 CONDUIT    100.93     0  03:01      0.24    0.09    1.00
  YS02001770YS02001767 CONDUIT    122.70     0  03:05      0.29    0.49    1.00
  YS02001774YS02001770 CONDUIT     47.48     0  03:02      0.13    0.03    1.00
  YS02001779YS02001774 CONDUIT     48.59     0  03:04      0.07    0.02    1.00
  YS02001649YS02001757 CONDUIT    268.69     0  03:03      0.34    0.16    1.00
  YS02001767YS02001765 CONDUIT     98.34     0  02:50      0.26    0.12    1.00
  YS02006561YS02001783 CONDUIT    283.06     0  02:48      1.74    0.15    0.41
  YS02001783YS02001784 CONDUIT    283.06     0  02:48      1.19    0.39    0.69
  YS02001784YS02001785 CONDUIT    284.11     0  02:48      1.26    0.66    0.75
  YS02001788YS02001790 CONDUIT    344.92     0  03:33      1.83    0.25    0.91
  YS02001790YS02001791 CONDUIT    384.88     0  03:33      2.13    0.42    1.00
  YS02001791YS02001793 CONDUIT    428.33     0  03:35      4.25    0.18    1.00
  YS02001910YS02001907 CONDUIT     87.51     0  03:00      0.49    0.05    0.71
  YS02001786YS02001788 CONDUIT    289.55     0  03:33      1.70    0.56    0.79
  YS02001915YS02001910 CONDUIT     87.24     0  02:59      0.45    0.04    0.50
  YS02001918YS02001915 CONDUIT     29.84     0  03:03      0.44    0.02    0.24
  YS02001923YS02001920 CONDUIT     27.00     0  03:02      0.42    0.01    0.14
  YS02001926YS02001923 CONDUIT     26.96     0  03:01      0.47    0.04    0.13
  YS02001929YS02001926 CONDUIT     26.95     0  03:01      0.49    0.01    0.12
  YS02001920YS02001918 CONDUIT     29.86     0  03:02      0.44    0.03    0.14
  YS02001629YS02163301 CONDUIT     70.06     0  03:08      0.10    0.09    1.00
  YS02001619YS02001622 CONDUIT     79.15     0  03:08      0.61    0.12    1.00
  YS02001622YS02001625 CONDUIT     80.91     0  04:02      0.23    0.04    1.00
  YS02001625YS02001629 CONDUIT     90.09     0  03:08      0.23    0.04    1.00
  YS02163301YS02001633 CONDUIT     61.66     0  03:04      0.08    0.06    1.00
  YS02163601YS02164001 CONDUIT    125.71     0  03:03      0.16    0.11    1.00
  YS02164001YS02001641 CONDUIT    123.73     0  03:03      0.16    0.17    1.00
  YS02001641YS02001644 CONDUIT    121.31     0  03:03      0.15    0.39    1.00
  YS02001647YS02001649 CONDUIT    206.19     0  03:04      0.27    0.11    1.00
  YS02006553YS02006556 CONDUIT    192.75     0  02:50      0.29    0.16    0.80
  YS02006556YS02006558 CONDUIT    192.79     0  02:51      0.28    0.15    0.82
  YSB6556YSB1171       CONDUIT     11.66     0  02:15      0.05    0.01    0.56
  YS02001907YS02006553 CONDUIT    192.70     0  02:50      0.24    0.23    0.90
  YS02006558YS02006561 CONDUIT    283.06     0  02:48      2.24    0.63    0.46
  YS02001633YS02163601 CONDUIT    126.69     0  03:03      0.16    0.13    1.00
  YS02001644YS02001647 CONDUIT    176.65     0  03:03      0.24    0.10    1.00
  YS02001745YS02001748 CONDUIT    195.32     0  04:00      1.37    0.08    0.92
  YS02001748YS02001751 CONDUIT    162.49     0  03:52      1.06    0.08    1.00
  YS02001751YS02001754 CONDUIT     87.23     0  03:57      0.92    0.04    1.00
  YS02001754YS02001757 CONDUIT    110.46     0  03:02      0.33    0.04    1.00
  YS02001882YS02001884 CONDUIT      3.29     0  02:04      0.07    0.00    0.44
  YS02001884YS02001887 CONDUIT      9.72     0  02:07      0.05    0.01    0.53
  YS02001890YS02001895 CONDUIT    107.26     0  02:40      0.27    0.05    0.50
  YS02001895YS02001898 CONDUIT    107.04     0  02:42      0.44    0.19    0.37
  YS02001898YS02001901 CONDUIT    106.87     0  02:42      0.32    0.07    0.44
  YS02001901YS02001904 CONDUIT    106.63     0  02:44      0.28    0.17    0.50
  YS02001904YS02001907 CONDUIT    106.60     0  02:44      0.20    0.04    0.66
  YS02001887YS02001890 CONDUIT    107.53     0  02:39      0.23    0.18    0.59
  YS02001652YS02001649 CONDUIT    124.75     0  03:00      0.31    0.06    1.00
  YS02001655YS02001652 CONDUIT     88.83     0  03:03      0.96    0.04    1.00
  YS02001658YS02001655 CONDUIT    128.36     0  02:58      1.22    0.05    1.00
  YS02001661YS02001658 CONDUIT    127.19     0  03:57      1.41    0.05    0.94
  YS02001664YS02001661 CONDUIT     76.55     0  02:38      1.06    0.02    0.70
  YSB1154YSB6556       CONDUIT     11.51     0  02:13      0.19    0.02    0.45
  YSB1174YSB1171       CONDUIT     10.31     0  02:07      0.05    0.02    0.57
  YSB1171HS02004479    CONDUIT     21.24     0  02:15      0.54    0.01    0.43
  HS02004881HS02006253 CONDUIT     34.77     0  02:14      1.59    0.01    0.27
  YS02001793JiankangQianchi CONDUIT    774.43     0  02:36     12.97    0.06    1.00
  YS02001757CaochengTiaoxuchi CONDUIT    443.16     0  02:52      0.89    0.19    1.00
  WSF200WS02003060     CONDUIT    382.34     0  07:44      1.74    0.08    0.29
  1                    CONDUIT    778.49     0  02:59      3.11    0.27    0.36
  CC-Pump-1            PUMP       199.92     0  06:00              1.00
  CC-Pump-2            PUMP       199.44     0  07:30              1.00
  JK-Pump-1            PUMP       300.00     0  00:00              1.00
  JK-Pump-2            PUMP       683.00     0  02:40              1.00
  XR-Pump-1            PUMP        95.00     0  00:00              1.00
  XR-Pump-2            PUMP        95.00     0  00:00              1.00
  XR-Pump-3            PUMP        95.00     0  00:00              1.00
  XR-Pump-4            PUMP        95.00     0  00:00              1.00
  
  
  ***************************
  Flow Classification Summary
  ***************************
  
  -------------------------------------------------------------------------------------
                      Adjusted    ---------- Fraction of Time in Flow Class ---------- 
                       /Actual         Up    Down  Sub   Sup   Up    Down  Norm  Inlet 
  Conduit               Length    Dry  Dry   Dry   Crit  Crit  Crit  Crit  Ltd   Ctrl  
  -------------------------------------------------------------------------------------
  WS02003066WSF200        1.00   0.02  0.04  0.00  0.00  0.94  0.00  0.00  0.88  0.00
  WS02006287WS02006284    1.00   0.07  0.04  0.00  0.65  0.24  0.00  0.00  0.78  0.00
  WS02006284WS02006280    1.00   0.08  0.00  0.00  0.00  0.00  0.00  0.92  0.00  0.00
  WS02006280WS02006229    1.00   0.08  0.00  0.00  0.00  0.00  0.00  0.92  0.00  0.00
  WS02006229WS02006228    1.00   0.00  0.00  0.00  0.99  0.00  0.00  0.01  0.00  0.00
  WS02006256WS02006235    1.00   0.00  0.00  0.00  0.99  0.01  0.00  0.00  0.00  0.00
  WS02006253WS02006251    1.00   0.04  0.03  0.00  0.91  0.00  0.01  0.00  0.00  0.00
  WS02006252WS02006251    1.00   0.63  0.00  0.00  0.00  0.00  0.37  0.00  0.00  0.00
  WS02006251WS02006249    1.00   0.00  0.00  0.00  1.00  0.00  0.00  0.00  0.89  0.00
  WS02006249WS02006248    1.00   0.00  0.02  0.00  0.44  0.00  0.54  0.00  0.00  0.00
  WS02006248WS02006247    1.00   0.01  0.00  0.00  0.97  0.00  0.00  0.01  0.61  0.00
  WS02006247WS02006245    1.00   0.01  0.00  0.00  0.96  0.00  0.00  0.03  0.00  0.00
  WS02006245WS02006243    1.00   0.01  0.00  0.00  0.80  0.00  0.00  0.19  0.01  0.00
  WS02006243WS02006242    1.00   0.00  0.00  0.00  0.99  0.00  0.00  0.00  0.62  0.00
  WS02006242WS02006240    1.00   0.00  0.00  0.00  1.00  0.00  0.00  0.00  0.00  0.00
  WS02006240WS02006239    1.00   0.00  0.00  0.00  0.73  0.00  0.00  0.26  0.02  0.00
  WS02006239WS02006238    1.00   0.00  0.00  0.00  1.00  0.00  0.00  0.00  0.35  0.00
  WS02006238WS02006235    1.00   0.00  0.00  0.00  1.00  0.00  0.00  0.00  0.00  0.00
  WS02006235WS02006234    1.00   0.00  0.00  0.00  0.81  0.00  0.19  0.00  0.00  0.00
  WS02006234WS02006232    1.00   0.00  0.00  0.00  1.00  0.00  0.00  0.00  0.20  0.00
  WS02006232WS02006231    1.00   0.00  0.00  0.00  0.98  0.00  0.02  0.00  0.00  0.00
  WS02006231WS02006230    1.00   0.00  0.00  0.00  0.23  0.00  0.77  0.00  0.00  0.00
  WS02006230WS02006229    1.00   0.00  0.00  0.00  0.99  0.00  0.00  0.01  0.01  0.00
  WS02006228WS02006109    1.00   0.00  0.00  0.00  0.99  0.00  0.00  0.00  0.01  0.00
  WS02006116WS02004401    1.00   0.02  0.00  0.00  0.98  0.00  0.00  0.00  0.00  0.00
  WS02006115WS02006116    1.00   0.02  0.00  0.00  0.98  0.00  0.00  0.01  0.00  0.00
  WS02006113WS02006111    1.00   0.01  0.00  0.00  0.00  0.99  0.00  0.00  0.22  0.00
  WS02006112WS02006115    1.00   0.01  0.00  0.00  0.98  0.00  0.00  0.00  0.00  0.00
  WS02006111WS02006112    1.00   0.01  0.00  0.00  0.98  0.00  0.00  0.00  0.98  0.00
  WS02006110WS02006113    1.00   0.01  0.00  0.00  0.99  0.00  0.00  0.00  0.00  0.00
  WS02006109WS02006110    1.00   0.00  0.01  0.00  0.99  0.00  0.00  0.00  0.00  0.00
  WS02004411WS02004412    1.00   0.04  0.00  0.00  0.96  0.00  0.00  0.00  0.00  0.00
  WS02004401WS02004402    1.00   0.02  0.00  0.00  0.98  0.00  0.00  0.00  0.00  0.00
  WS02004413WS02003067    1.00   0.04  0.02  0.00  0.00  0.00  0.95  0.00  0.00  0.00
  WS02004412WS02004413    1.00   0.04  0.00  0.00  0.96  0.00  0.00  0.00  0.01  0.00
  WS02004410WS02004411    1.00   0.03  0.00  0.00  0.97  0.00  0.00  0.00  0.00  0.00
  WS02004409WS02004410    1.00   0.03  0.00  0.00  0.97  0.00  0.00  0.00  0.02  0.00
  WS02004407WS02004409    1.00   0.03  0.00  0.00  0.95  0.02  0.00  0.00  0.95  0.00
  WS02004406WS02004407    1.00   0.00  0.03  0.00  0.97  0.00  0.00  0.00  0.00  0.00
  WS02004405WS02004406    1.00   0.00  0.00  0.00  1.00  0.00  0.00  0.00  0.00  0.00
  WS02004404WS02004405    1.00   0.00  0.00  0.00  1.00  0.00  0.00  0.00  0.00  0.00
  WS02004403WS02004404    1.00   0.00  0.02  0.00  0.98  0.00  0.00  0.00  0.00  0.00
  WS02004402WS02004403    1.00   0.02  0.00  0.00  0.98  0.00  0.00  0.00  0.00  0.00
  WS02004139WS02001211    1.00   0.00  0.00  0.00  1.00  0.00  0.00  0.00  0.00  0.00
  WS02004138WS02004139    1.00   0.00  0.00  0.00  0.99  0.01  0.00  0.00  1.00  0.00
  WS02003067WS02003066    1.00   0.05  0.01  0.00  0.94  0.00  0.00  0.00  0.00  0.00
  WS02001213WS02003059    1.00   0.00  0.00  0.00  0.99  0.00  0.00  0.00  0.00  0.00
  WS02001212WS02001213    1.00   0.00  0.00  0.00  0.71  0.00  0.29  0.00  0.00  0.00
  WS02001211WS02001212    1.00   0.00  0.00  0.00  1.00  0.00  0.00  0.00  0.00  0.00
  WS02003072WS02003073    1.00   0.00  0.00  0.00  0.00  0.00  0.00  1.00  0.00  0.00
  WS02003069WS02003072    1.00   0.00  0.00  0.00  0.99  0.01  0.00  0.00  0.35  0.00
  WS02003060WS02003069    1.00   0.00  0.00  0.00  0.97  0.03  0.00  0.00  0.25  0.00
  WS02003059WS02003060    1.00   0.00  0.00  0.00  1.00  0.00  0.00  0.00  0.01  0.00
  HS02004901HS02004770    1.00   0.08  0.00  0.00  0.92  0.00  0.00  0.00  0.02  0.00
  HS02004876HS02004881    1.00   0.02  0.00  0.00  0.98  0.00  0.00  0.00  0.00  0.00
  HS02004870HS02004876    1.00   0.01  0.00  0.00  0.99  0.01  0.00  0.00  0.95  0.00
  HS02004842HS02004848    1.00   0.00  0.08  0.00  0.91  0.00  0.00  0.00  0.67  0.00
  HS02004837HS02004842    1.00   0.00  0.00  0.00  0.99  0.01  0.00  0.00  0.11  0.00
  HS02004830HS02004837    1.00   0.00  0.00  0.00  1.00  0.00  0.00  0.00  0.99  0.00
  HS02004824HS02004830    1.00   0.00  0.00  0.00  1.00  0.00  0.00  0.00  0.00  0.00
  HS02004817HS02004824    1.00   0.00  0.00  0.00  1.00  0.00  0.00  0.00  1.00  0.00
  HS02004770HS02004777    1.00   0.00  0.08  0.00  0.92  0.00  0.00  0.00  0.06  0.00
  HS02004799HS02004480    1.00   0.00  0.03  0.00  0.89  0.00  0.08  0.00  0.00  0.00
  HS02004792HS02004799    1.00   0.00  0.00  0.00  0.99  0.01  0.00  0.00  0.98  0.00
  HS02004788HS02004792    1.00   0.00  0.00  0.00  0.99  0.01  0.00  0.00  0.98  0.00
  HS02004785HS02004788    1.00   0.00  0.00  0.00  1.00  0.00  0.00  0.00  0.00  0.00
  HS02004777HS02004785    1.00   0.00  0.00  0.00  1.00  0.00  0.00  0.00  0.18  0.00
  HS02004480HS02004478    1.00   0.09  0.00  0.00  0.67  0.00  0.00  0.24  0.00  0.00
  HS02004479HS02004480    1.00   0.03  0.00  0.00  0.97  0.00  0.00  0.00  0.15  0.00
  HS02004862HS02004870    1.00   0.00  0.00  0.00  1.00  0.00  0.00  0.00  0.06  0.00
  HS02004848HS02004852    1.00   0.09  0.00  0.00  0.91  0.00  0.00  0.00  0.71  0.00
  HS02004856HS02004862    1.00   0.00  0.14  0.00  0.86  0.00  0.00  0.00  0.76  0.00
  HS02004852HS02004856    1.00   0.08  0.02  0.00  0.90  0.00  0.00  0.00  0.83  0.00
  HS02004802HS02004478    1.00   0.08  0.01  0.00  0.90  0.00  0.00  0.00  0.01  0.00
  HS02004478WS02006287    1.00   0.11  0.00  0.00  0.83  0.06  0.00  0.00  0.80  0.00
  HS02004817HS02004807    1.00   0.00  0.08  0.00  0.92  0.00  0.00  0.00  0.00  0.00
  HS02004807HS02004802    1.00   0.08  0.00  0.00  0.91  0.00  0.00  0.01  0.01  0.00
  YS02001759YS02001757    1.00   0.00  0.00  0.00  1.00  0.00  0.00  0.00  0.18  0.00
  YS02001762YS02001759    1.00   0.00  0.00  0.00  1.00  0.00  0.00  0.00  0.04  0.00
  YS02001765YS02001762    1.00   0.00  0.00  0.00  1.00  0.00  0.00  0.00  0.21  0.00
  YS02001770YS02001767    1.00   0.00  0.00  0.00  1.00  0.00  0.00  0.00  0.00  0.00
  YS02001774YS02001770    1.00   0.00  0.10  0.00  0.90  0.00  0.00  0.00  0.06  0.00
  YS02001779YS02001774    1.00   0.00  0.00  0.00  1.00  0.00  0.00  0.00  0.25  0.00
  YS02001649YS02001757    1.00   0.00  0.00  0.00  1.00  0.00  0.00  0.00  0.19  0.00
  YS02001767YS02001765    1.00   0.00  0.00  0.00  1.00  0.00  0.00  0.00  0.01  0.00
  YS02006561YS02001783    1.00   0.15  0.00  0.00  0.05  0.80  0.00  0.00  0.75  0.00
  YS02001783YS02001784    1.00   0.00  0.15  0.00  0.85  0.00  0.00  0.00  0.01  0.00
  YS02001784YS02001785    1.00   0.00  0.00  0.00  1.00  0.00  0.00  0.00  0.24  0.00
  YS02001788YS02001790    1.00   0.00  0.00  0.00  0.27  0.73  0.00  0.00  0.74  0.00
  YS02001790YS02001791    1.00   0.00  0.00  0.00  0.15  0.85  0.00  0.00  0.46  0.00
  YS02001791YS02001793    1.00   0.00  0.00  0.00  0.19  0.81  0.00  0.00  0.07  0.00
  YS02001910YS02001907    1.00   0.00  0.00  0.00  0.97  0.00  0.00  0.02  0.13  0.00
  YS02001786YS02001788    1.00   0.00  0.00  0.00  0.24  0.76  0.00  0.00  0.00  0.00
  YS02001915YS02001910    1.00   0.00  0.00  0.00  0.99  0.01  0.00  0.00  0.23  0.00
  YS02001918YS02001915    1.00   0.00  0.01  0.00  0.98  0.01  0.00  0.00  0.83  0.00
  YS02001923YS02001920    1.00   0.00  0.00  0.00  1.00  0.00  0.00  0.00  1.00  0.00
  YS02001926YS02001923    1.00   0.00  0.05  0.00  0.00  0.00  0.95  0.00  0.00  0.00
  YS02001929YS02001926    1.00   0.00  0.08  0.00  0.92  0.00  0.00  0.00  0.86  0.00
  YS02001920YS02001918    1.00   0.00  0.01  0.00  0.99  0.00  0.00  0.00  0.00  0.00
  YS02001629YS02163301    1.00   0.12  0.01  0.00  0.87  0.00  0.00  0.00  0.00  0.00
  YS02001619YS02001622    1.00   0.08  0.00  0.00  0.92  0.00  0.00  0.00  0.00  0.00
  YS02001622YS02001625    1.00   0.08  0.00  0.00  0.92  0.00  0.00  0.00  0.12  0.00
  YS02001625YS02001629    1.00   0.09  0.07  0.00  0.81  0.00  0.03  0.00  0.00  0.00
  YS02163301YS02001633    1.00   0.00  0.12  0.00  0.88  0.00  0.00  0.00  0.00  0.00
  YS02163601YS02164001    1.00   0.00  0.05  0.00  0.95  0.00  0.00  0.00  0.00  0.00
  YS02164001YS02001641    1.00   0.01  0.05  0.00  0.94  0.00  0.00  0.00  0.07  0.00
  YS02001641YS02001644    1.00   0.00  0.01  0.00  0.99  0.00  0.00  0.00  0.00  0.00
  YS02001647YS02001649    1.00   0.00  0.14  0.00  0.86  0.00  0.00  0.00  0.01  0.00
  YS02006553YS02006556    1.00   0.01  0.00  0.00  0.99  0.00  0.00  0.00  0.03  0.00
  YS02006556YS02006558    1.00   0.00  0.00  0.00  1.00  0.00  0.00  0.00  0.00  0.00
  YSB6556YSB1171          1.00   0.03  0.04  0.00  0.92  0.00  0.00  0.00  0.00  0.00
  YS02001907YS02006553    1.00   0.00  0.02  0.00  0.98  0.00  0.00  0.00  0.00  0.00
  YS02006558YS02006561    1.00   0.15  0.00  0.00  0.00  0.85  0.00  0.00  0.73  0.00
  YS02001633YS02163601    1.00   0.00  0.01  0.00  0.99  0.00  0.00  0.00  0.19  0.00
  YS02001644YS02001647    1.00   0.00  0.14  0.00  0.86  0.00  0.00  0.00  0.00  0.00
  YS02001745YS02001748    1.00   0.00  0.00  0.00  0.75  0.02  0.00  0.23  0.13  0.00
  YS02001748YS02001751    1.00   0.00  0.00  0.00  0.93  0.07  0.00  0.00  0.22  0.00
  YS02001751YS02001754    1.00   0.00  0.00  0.00  0.84  0.00  0.00  0.16  0.02  0.00
  YS02001754YS02001757    1.00   0.00  0.00  0.00  0.99  0.01  0.00  0.00  0.25  0.00
  YS02001882YS02001884    1.00   0.11  0.01  0.00  0.88  0.00  0.00  0.00  0.00  0.00
  YS02001884YS02001887    1.00   0.04  0.03  0.00  0.93  0.00  0.00  0.00  0.00  0.00
  YS02001890YS02001895    1.00   0.00  0.12  0.00  0.87  0.00  0.00  0.00  0.00  0.00
  YS02001895YS02001898    1.00   0.13  0.00  0.00  0.85  0.00  0.02  0.00  0.00  0.00
  YS02001898YS02001901    1.00   0.12  0.01  0.00  0.87  0.00  0.00  0.00  0.02  0.00
  YS02001901YS02001904    1.00   0.12  0.00  0.00  0.88  0.00  0.00  0.00  0.00  0.00
  YS02001904YS02001907    1.00   0.00  0.12  0.00  0.88  0.00  0.00  0.00  0.00  0.00
  YS02001887YS02001890    1.00   0.00  0.00  0.00  0.97  0.00  0.02  0.00  0.00  0.00
  YS02001652YS02001649    1.00   0.00  0.00  0.00  1.00  0.00  0.00  0.00  0.24  0.00
  YS02001655YS02001652    1.00   0.00  0.00  0.00  0.84  0.00  0.00  0.16  0.02  0.00
  YS02001658YS02001655    1.00   0.00  0.11  0.00  0.82  0.08  0.00  0.00  0.12  0.00
  YS02001661YS02001658    1.00   0.11  0.00  0.00  0.75  0.14  0.00  0.00  0.16  0.00
  YS02001664YS02001661    1.00   0.08  0.00  0.00  0.77  0.15  0.00  0.00  0.45  0.00
  YSB1154YSB6556          1.00   0.08  0.00  0.00  0.92  0.00  0.00  0.00  0.02  0.00
  YSB1174YSB1171          1.00   0.04  0.02  0.00  0.94  0.00  0.00  0.00  0.00  0.00
  YSB1171HS02004479       1.00   0.03  0.00  0.00  0.96  0.00  0.00  0.01  0.13  0.00
  HS02004881HS02006253    1.00   0.04  0.00  0.00  0.15  0.00  0.00  0.80  0.04  0.00
  YS02001793JiankangQianchi    1.00   0.00  0.00  0.00  0.67  0.33  0.00  0.00  0.53  0.00
  YS02001757CaochengTiaoxuchi    1.00   0.00  0.19  0.00  0.81  0.00  0.00  0.00  0.00  0.00
  WSF200WS02003060        1.00   0.00  0.02  0.00  0.76  0.22  0.00  0.00  0.81  0.00
  1                       1.00   0.00  0.00  0.00  0.00  1.00  0.00  0.00  0.40  0.00
  
  
  *************************
  Conduit Surcharge Summary
  *************************
  
  ----------------------------------------------------------------------------
                                                           Hours        Hours 
                         --------- Hours Full --------   Above Full   Capacity
  Conduit                Both Ends  Upstream  Dnstream   Normal Flow   Limited
  ----------------------------------------------------------------------------
  WS02006229WS02006228        0.13      0.14      0.13      0.66         0.12
  WS02006256WS02006235        3.03      3.04      5.30      2.68         0.01
  WS02006253WS02006251        0.01      0.01      0.01      0.01         0.01
  WS02006252WS02006251        0.05      0.05      0.13      0.11         0.01
  WS02006251WS02006249        0.01      0.01      0.01      0.03         0.01
  WS02006249WS02006248        0.01      0.01      0.01      0.21         0.01
  WS02006248WS02006247        0.01      0.01      0.03      0.01         0.01
  WS02006247WS02006245        0.02      0.04      0.02      0.36         0.02
  WS02006245WS02006243        0.03      0.03      0.04      0.01         0.01
  WS02006243WS02006242        0.05      0.05      0.10      0.01         0.01
  WS02006242WS02006240        0.07      0.07      0.12      0.10         0.01
  WS02006240WS02006239        0.08      0.08      0.10      0.01         0.02
  WS02006239WS02006238        0.13      0.13      0.14      0.01         0.02
  WS02006238WS02006235        0.14      0.14      0.16      0.01         0.01
  WS02006235WS02006234        0.07      0.07      0.13      2.92         0.01
  WS02006234WS02006232        0.10      0.10      0.16      0.01         0.01
  WS02006232WS02006231        0.01      0.01      0.16      0.01         0.01
  WS02006231WS02006230        0.01      0.01      0.01      3.16         0.01
  WS02006230WS02006229        0.53      0.58      0.53      3.77         0.53
  WS02006228WS02006109        0.13      0.16      0.13      1.69         0.13
  WS02006111WS02006112        0.01      0.01      0.84      0.01         0.01
  WS02006110WS02006113        0.01      0.01      0.15      0.01         0.01
  WS02006109WS02006110        0.01      0.01      0.16      0.01         0.01
  WS02004404WS02004405        0.01      0.01      0.01      3.56         0.01
  WS02003072WS02003073        0.01      0.01      0.01      2.32         0.01
  YS02001759YS02001757        5.09      5.09      5.33      0.01         0.01
  YS02001762YS02001759        4.97      4.97      5.09      0.01         0.01
  YS02001765YS02001762        4.80      4.80      4.97      0.01         0.01
  YS02001770YS02001767        4.67      4.67      4.70      0.01         0.21
  YS02001774YS02001770        4.59      4.59      4.90      0.01         0.01
  YS02001779YS02001774        4.12      4.12      4.90      0.01         0.01
  YS02001649YS02001757        5.01      5.01      5.33      0.01         0.01
  YS02001767YS02001765        4.70      4.70      4.80      0.01         0.01
  YS02001788YS02001790        0.01      0.01      0.26      0.01         0.01
  YS02001790YS02001791        0.26      0.26      0.50      0.01         0.01
  YS02001791YS02001793        0.50      0.50      1.18      0.01         0.01
  YS02001629YS02163301        4.53      4.53      4.63      0.01         0.01
  YS02001619YS02001622        3.43      3.43      3.51      0.01         0.01
  YS02001622YS02001625        3.51      3.51      4.38      0.01         0.01
  YS02001625YS02001629        3.43      3.43      4.38      0.01         0.01
  YS02163301YS02001633        4.63      4.63      4.82      0.01         0.01
  YS02163601YS02164001        4.80      4.80      5.00      0.01         0.01
  YS02164001YS02001641        4.80      4.80      4.86      0.01         0.01
  YS02001641YS02001644        4.86      4.86      4.88      0.01         0.28
  YS02001647YS02001649        4.35      4.35      5.01      0.01         0.01
  YS02001633YS02163601        4.75      4.75      5.00      0.01         0.01
  YS02001644YS02001647        4.35      4.35      4.88      0.01         0.01
  YS02001745YS02001748        0.01      0.01      2.55      0.01         0.01
  YS02001748YS02001751        2.89      2.89      3.60      0.01         0.01
  YS02001751YS02001754        3.60      3.60      4.21      0.01         0.01
  YS02001754YS02001757        4.36      4.36      5.33      0.01         0.01
  YS02001652YS02001649        4.39      4.39      5.01      0.01         0.01
  YS02001655YS02001652        3.67      3.67      4.30      0.01         0.01
  YS02001658YS02001655        2.62      2.62      3.67      0.01         0.01
  YS02001661YS02001658        0.01      0.01      2.62      0.01         0.01
  YS02001793JiankangQianchi        1.01      1.01      3.65      0.01         0.01
  YS02001757CaochengTiaoxuchi        3.16      3.16      5.33      0.01         0.01
  
  
  ***************
  Pumping Summary
  ***************
  
  ---------------------------------------------------------------------------------------------------------
                                                  Min       Avg       Max     Total     Power    % Time Off
                        Percent   Number of      Flow      Flow      Flow    Volume     Usage    Pump Curve
  Pump                 Utilized   Start-Ups       LPS       LPS       LPS  10^6 ltr     Kw-hr    Low   High
  ---------------------------------------------------------------------------------------------------------
  CC-Pump-1                8.51           2      0.00    110.45    199.92     0.240      0.20    0.0    0.0
  CC-Pump-2                4.26           1      0.00    105.97    199.44     0.120      0.12    0.0    0.0
  JK-Pump-1               38.30           5      0.00    151.41    300.00     1.661     29.26    0.0    0.0
  JK-Pump-2               31.91           4      0.00    238.80    683.00     2.102     36.70    0.0   96.8
  XR-Pump-1               89.35           4      0.00     87.33     95.00     2.166     41.46    0.0    0.0
  XR-Pump-2               80.84           4      0.00     84.95     95.00     1.881     36.37    0.0    0.0
  XR-Pump-3               76.59           5      0.00     84.34     95.00     1.767     33.82    0.0    0.0
  XR-Pump-4               76.59           5      0.00     84.34     95.00     1.767     33.82    0.0    0.0
  
  
  ***************************
  Link Pollutant Load Summary
  ***************************
  
  ------------------------------------------------------------------------------------------
                                 COD            SS            TN            TP         NH4-N
  Link                            kg            kg            kg            kg            kg
  ------------------------------------------------------------------------------------------
  WS02003066WSF200           182.707       306.524         9.138         1.011         5.373
  WS02006287WS02006284       101.873       172.375         6.167         0.717         3.706
  WS02006284WS02006280       102.296       173.057         6.207         0.722         3.730
  WS02006280WS02006229       102.278       173.024         6.205         0.722         3.730
  WS02006229WS02006228       188.338       315.047         8.963         0.976         5.233
  WS02006256WS02006235        58.002        94.590         2.004         0.192         1.113
  WS02006253WS02006251        12.547        22.325         0.380         0.034         0.203
  WS02006252WS02006251        20.357        33.002         0.553         0.046         0.287
  WS02006251WS02006249        31.544        53.137         0.903         0.077         0.475
  WS02006249WS02006248        31.322        52.767         0.896         0.077         0.471
  WS02006248WS02006247        31.414        52.931         0.896         0.077         0.472
  WS02006247WS02006245        31.560        53.167         0.901         0.077         0.474
  WS02006245WS02006243        31.723        53.462         0.901         0.077         0.473
  WS02006243WS02006242        33.187        55.932         0.943         0.081         0.496
  WS02006242WS02006240        36.138        60.784         1.041         0.090         0.550
  WS02006240WS02006239        39.339        65.987         1.151         0.100         0.611
  WS02006239WS02006238        43.199        72.108         1.301         0.115         0.696
  WS02006238WS02006235        45.635        75.948         1.388         0.124         0.745
  WS02006235WS02006234        87.453       144.311         2.818         0.261         1.538
  WS02006234WS02006232        87.677       144.645         2.833         0.262         1.547
  WS02006232WS02006231        87.171       143.838         2.812         0.260         1.535
  WS02006231WS02006230        86.664       143.041         2.790         0.258         1.522
  WS02006230WS02006229        86.603       142.906         2.791         0.258         1.523
  WS02006228WS02006109       188.035       314.565         8.950         0.975         5.226
  WS02006116WS02004401       194.164       324.675         9.603         1.058         5.637
  WS02006115WS02006116       194.938       325.915         9.626         1.060         5.650
  WS02006113WS02006111       194.750       325.302         9.665         1.065         5.676
  WS02006112WS02006115       196.075       327.762         9.687         1.067         5.685
  WS02006111WS02006112       194.453       324.820         9.654         1.064         5.669
  WS02006110WS02006113       195.253       326.115         9.697         1.069         5.695
  WS02006109WS02006110       196.256       327.736         9.758         1.076         5.731
  WS02004411WS02004412       186.976       313.307         9.378         1.038         5.516
  WS02004401WS02004402       193.074       322.909         9.551         1.053         5.607
  WS02004413WS02003067       183.406       307.583         9.177         1.016         5.396
  WS02004412WS02004413       185.564       311.089         9.303         1.030         5.472
  WS02004410WS02004411       188.022       314.941         9.428         1.044         5.545
  WS02004409WS02004410       189.105       316.656         9.480         1.049         5.576
  WS02004407WS02004409       189.750       317.647         9.502         1.051         5.587
  WS02004406WS02004407       189.696       317.519         9.488         1.049         5.578
  WS02004405WS02004406       191.298       320.093         9.571         1.058         5.627
  WS02004404WS02004405       191.746       320.760         9.554         1.055         5.614
  WS02004403WS02004404       191.253       319.978         9.474         1.045         5.563
  WS02004402WS02004403       192.239       321.574         9.522         1.050         5.591
  WS02004139WS02001211      1391.569      2228.733       131.139        16.341        81.807
  WS02004138WS02004139      1399.793      2241.904       131.909        16.437        82.287
  WS02003067WS02003066       182.951       306.912         9.151         1.013         5.381
  WS02001213WS02003059      1419.885      2274.005       133.904        16.687        83.538
  WS02001212WS02001213      1429.955      2290.132       134.851        16.805        84.128
  WS02001211WS02001212      1433.819      2296.319       135.214        16.851        84.355
  WS02003072WS02003073      1697.023      2731.698       152.268        18.855        94.685
  WS02003069WS02003072      1703.289      2741.738       152.825        18.924        95.031
  WS02003060WS02003069      1707.193      2747.953       153.153        18.964        95.234
  WS02003059WS02003060      1414.836      2265.916       133.435        16.629        83.245
  HS02004901HS02004770         2.265         4.036         0.044         0.003         0.020
  HS02004876HS02004881         9.200        16.516         0.288         0.026         0.154
  HS02004870HS02004876         7.173        12.802         0.257         0.024         0.141
  HS02004842HS02004848         1.272         2.198         0.029         0.002         0.013
  HS02004837HS02004842         5.911         9.594         0.496         0.061         0.306
  HS02004830HS02004837        48.031        77.914         4.222         0.522         2.624
  HS02004824HS02004830        48.781        79.115         4.294         0.531         2.669
  HS02004817HS02004824        53.742        87.973         4.426         0.541         2.737
  HS02004770HS02004777         8.815        15.846         0.195         0.013         0.088
  HS02004799HS02004480        40.212        68.874         1.905         0.208         1.102
  HS02004792HS02004799        37.760        64.149         1.906         0.212         1.112
  HS02004788HS02004792        25.323        42.863         1.518         0.174         0.904
  HS02004785HS02004788        10.308        18.245         0.347         0.032         0.184
  HS02004777HS02004785         9.798        17.423         0.300         0.026         0.155
  HS02004480HS02004478        47.378        82.141         1.982         0.211         1.131
  HS02004479HS02004480        11.570        20.292         0.497         0.055         0.290
  HS02004862HS02004870         5.420         9.460         0.221         0.022         0.124
  HS02004848HS02004852         1.418         2.469         0.032         0.002         0.014
  HS02004856HS02004862         2.819         5.114         0.060         0.004         0.028
  HS02004852HS02004856         1.415         2.463         0.032         0.002         0.014
  HS02004802HS02004478        54.799        90.727         4.212         0.510         2.592
  HS02004478WS02006287       102.053       172.668         6.183         0.719         3.716
  HS02004817HS02004807        52.364        85.770         4.295         0.525         2.656
  HS02004807HS02004802        55.504        91.853         4.281         0.518         2.635
  YS02001759YS02001757        83.110       136.119         2.024         0.150         1.028
  YS02001762YS02001759        44.602        73.715         1.241         0.099         0.650
  YS02001765YS02001762        44.260        73.066         1.260         0.101         0.663
  YS02001770YS02001767        42.039        69.414         0.973         0.063         0.479
  YS02001774YS02001770         4.496         7.492         0.116         0.009         0.060
  YS02001779YS02001774         3.589         5.910         0.168         0.018         0.097
  YS02001649YS02001757       120.706       191.891         2.827         0.211         1.383
  YS02001767YS02001765        44.442        73.306         1.280         0.104         0.675
  YS02006561YS02001783       183.896       299.502         5.707         0.518         3.097
  YS02001783YS02001784       183.830       299.409         5.703         0.517         3.095
  YS02001784YS02001785       191.208       311.230         6.416         0.606         3.541
  YS02001788YS02001790       192.261       312.942         6.522         0.620         3.607
  YS02001790YS02001791       193.455       314.883         6.641         0.635         3.682
  YS02001791YS02001793       193.521       314.980         6.646         0.635         3.685
  YS02001910YS02001907        67.769       108.977         3.093         0.317         1.783
  YS02001786YS02001788       191.452       311.634         6.444         0.610         3.559
  YS02001915YS02001910        67.657       108.744         3.051         0.311         1.755
  YS02001918YS02001915        38.400        60.162         2.368         0.274         1.428
  YS02001923YS02001920        18.370        28.106         0.431         0.032         0.217
  YS02001926YS02001923        17.995        27.500         0.392         0.027         0.192
  YS02001929YS02001926        17.704        27.025         0.360         0.023         0.172
  YS02001920YS02001918        38.315        60.025         2.349         0.271         1.416
  YS02001629YS02163301        20.270        32.331         0.470         0.029         0.217
  YS02001619YS02001622        23.280        36.887         0.542         0.033         0.249
  YS02001622YS02001625        22.401        35.599         0.519         0.032         0.238
  YS02001625YS02001629        21.355        34.052         0.494         0.030         0.227
  YS02163301YS02001633        20.061        32.016         0.465         0.029         0.215
  YS02163601YS02164001        58.036        91.743         1.356         0.099         0.665
  YS02164001YS02001641        57.565        91.003         1.334         0.097         0.652
  YS02001641YS02001644        57.860        91.488         1.329         0.096         0.648
  YS02001647YS02001649        94.455       149.021         2.093         0.151         1.015
  YS02006553YS02006556       135.041       219.349         4.523         0.430         2.504
  YS02006556YS02006558       135.003       219.271         4.492         0.425         2.483
  YSB6556YSB1171               5.718        10.142         0.185         0.019         0.104
  YS02001907YS02006553       134.965       219.235         4.518         0.429         2.501
  YS02006558YS02006561       183.898       299.496         5.707         0.518         3.097
  YS02001633YS02163601        58.636        92.610         1.339         0.096         0.651
  YS02001644YS02001647        95.351       150.291         2.103         0.151         1.019
  YS02001745YS02001748        46.056        74.506         1.962         0.195         1.118
  YS02001748YS02001751        40.025        64.881         1.580         0.151         0.887
  YS02001751YS02001754        39.574        64.195         1.651         0.163         0.937
  YS02001754YS02001757        40.558        65.799         1.817         0.185         1.044
  YS02001882YS02001884         0.435         0.675         0.014         0.001         0.008
  YS02001884YS02001887         1.687         2.704         0.049         0.005         0.026
  YS02001890YS02001895        68.214       111.707         1.453         0.114         0.733
  YS02001895YS02001898        68.088       111.527         1.447         0.114         0.729
  YS02001898YS02001901        67.984       111.382         1.444         0.113         0.728
  YS02001901YS02001904        68.064       111.544         1.465         0.116         0.741
  YS02001904YS02001907        68.864       112.869         1.560         0.128         0.801
  YS02001887YS02001890        69.052       113.002         1.517         0.122         0.772
  YS02001652YS02001649        30.451        49.218         0.825         0.066         0.408
  YS02001655YS02001652        31.365        50.619         0.852         0.069         0.421
  YS02001658YS02001655        30.589        49.280         0.716         0.050         0.332
  YS02001661YS02001658        31.518        50.622         0.705         0.047         0.319
  YS02001664YS02001661        31.618        50.669         0.710         0.047         0.321
  YSB1154YSB6556               5.206         9.328         0.122         0.011         0.064
  YSB1174YSB1171               3.972         7.145         0.129         0.013         0.072
  YSB1171HS02004479           11.462        20.129         0.485         0.053         0.283
  HS02004881HS02006253        10.335        18.639         0.309         0.027         0.164
  YS02001793JiankangQianchi       194.435       316.439         6.702         0.642         3.719
  YS02001757CaochengTiaoxuchi       230.440       372.849         6.072         0.488         3.119
  WSF200WS02003060           182.440       306.136         9.126         1.010         5.366
  1                         1700.587      2737.550       152.671        18.906        94.939
  CC-Pump-1                   13.432        21.794         0.354         0.029         0.182
  CC-Pump-2                    6.644        10.760         0.175         0.014         0.090
  JK-Pump-1                   52.640        86.177         1.745         0.165         0.962
  JK-Pump-2                   89.235       144.638         3.204         0.312         1.791
  XR-Pump-1                  406.346       650.789        38.308         4.774        23.899
  XR-Pump-2                  348.546       558.226        32.852         4.094        20.494
  XR-Pump-3                  324.423       519.604        30.561         3.808        19.064
  XR-Pump-4                  324.423       519.604        30.561         3.808        19.064
  

  Analysis begun on:  Sat Jul 10 23:06:26 2021
  Analysis ended on:  Sat Jul 10 23:06:27 2021
  Total elapsed time: 00:00:01