
  EPA STORM WATER MANAGEMENT MODEL - VERSION 5.1 (Build 5.3.0.dev0)
  --------------------------------------------------------------

  WARNING 04: minimum elevation drop used for Conduit WS02004404WS02004405
  WARNING 03: negative offset ignored for Link YS02001904YS02001907
  
  *********************************************************
  NOTE: The summary statistics displayed in this report are
  based on results found at every computational time step,  
  not just on results from each reporting time step.
  *********************************************************
  
  ****************
  Analysis Options
  ****************
  Flow Units ............... LPS
  Process Models:
    Rainfall/Runoff ........ YES
    RDII ................... NO
    Snowmelt ............... NO
    Groundwater ............ NO
    Flow Routing ........... YES
    Ponding Allowed ........ NO
    Water Quality .......... YES
  Infiltration Method ...... HORTON
  Flow Routing Method ...... DYNWAVE
  Surcharge Method ......... EXTRAN
  Starting Date ............ 08/28/2015 08:00:00
  Ending Date .............. 08/28/2015 15:50:00
  Antecedent Dry Days ...... 8.0
  Report Time Step ......... 00:01:00
  Wet Time Step ............ 00:01:00
  Dry Time Step ............ 00:01:00
  Routing Time Step ........ 5.00 sec
  Variable Time Step ....... YES
  Maximum Trials ........... 8
  Number of Threads ........ 4
  Head Tolerance ........... 0.001500 m
  
  
  **************************        Volume         Depth
  Runoff Quantity Continuity     hectare-m            mm
  **************************     ---------       -------
  Total Precipitation ......         3.047         6.671
  Evaporation Loss .........         0.000         0.000
  Infiltration Loss ........         0.632         1.383
  Surface Runoff ...........         1.823         3.991
  Final Storage ............         0.593         1.299
  Continuity Error (%) .....        -0.021
  
  
  **************************           COD            SS            TN            TP         NH4-N
  Runoff Quality Continuity             kg            kg            kg            kg            kg
  **************************    ----------    ----------    ----------    ----------    ----------
  Initial Buildup ..........     41378.656     70582.865      1804.177       168.684      1032.807
  Surface Buildup ..........        15.848        22.287         2.907         0.268         1.716
  Wet Deposition ...........         0.000         0.000         0.000         0.000         0.000
  Sweeping Removal .........         0.000         0.000         0.000         0.000         0.000
  Infiltration Loss ........        35.831        64.206         0.697         0.047         0.328
  BMP Removal ..............         0.000         0.000         0.000         0.000         0.000
  Surface Runoff ...........      1183.101      2055.627        23.655         1.549        11.165
  Remaining Buildup ........     40175.184     68484.649      1782.723       167.355      1023.026
  Continuity Error (%) .....         0.001         0.001         0.000         0.000         0.000
  
  
  **************************        Volume        Volume
  Flow Routing Continuity        hectare-m      10^6 ltr
  **************************     ---------     ---------
  Dry Weather Inflow .......         0.616         6.165
  Wet Weather Inflow .......         1.822        18.220
  Groundwater Inflow .......         0.000         0.000
  RDII Inflow ..............         0.000         0.000
  External Inflow ..........         0.102         1.024
  External Outflow .........         1.484        14.843
  Flooding Loss ............         0.609         6.095
  Evaporation Loss .........         0.000         0.000
  Exfiltration Loss ........         0.000         0.000
  Initial Stored Volume ....         0.076         0.761
  Final Stored Volume ......         0.624         6.238
  Continuity Error (%) .....        -3.849
  
  
  **************************           COD            SS            TN            TP         NH4-N
  Quality Routing Continuity            kg            kg            kg            kg            kg
  **************************    ----------    ----------    ----------    ----------    ----------
  Dry Weather Inflow .......      1541.201      2465.922       147.955        18.494        92.472
  Wet Weather Inflow .......      1182.709      2054.994        23.646         1.548        11.161
  Groundwater Inflow .......         0.000         0.000         0.000         0.000         0.000
  RDII Inflow ..............         0.000         0.000         0.000         0.000         0.000
  External Inflow ..........       183.418       293.469        17.608         2.201        11.005
  External Outflow .........      1862.445      3059.648       146.664        17.833        90.331
  Flooding Loss ............       359.721       614.602         8.399         0.653         4.246
  Exfiltration Loss ........         0.000         0.000         0.000         0.000         0.000
  Mass Reacted .............         0.000         0.000         0.000         0.000         0.000
  Initial Stored Mass ......         0.000         0.000         0.000         0.000         0.000
  Final Stored Mass ........       542.409       901.161        28.422         3.169        16.806
  Continuity Error (%) .....         4.910         4.964         3.025         2.645         2.840
  
  
  *************************
  Highest Continuity Errors
  *************************
  Node YS02001774 (34.91%)
  Node HS02004842 (22.61%)
  Node JK-storage (-18.26%)
  Node YS02001884 (14.21%)
  Node YSB1171 (4.93%)
  
  
  ***************************
  Time-Step Critical Elements
  ***************************
  Link WS02006252WS02006251 (65.56%)
  Link WS02006280WS02006229 (7.47%)
  Link YS02001793JiankangQianchi (6.04%)
  Link WS02006238WS02006235 (5.72%)
  Link YS02006556YS02006558 (5.53%)
  
  
  ********************************
  Highest Flow Instability Indexes
  ********************************
  Link WS02006113WS02006111 (58)
  Link YS02163301YS02001633 (33)
  Link YS02001629YS02163301 (33)
  Link YS02001619YS02001622 (32)
  Link YS02163601YS02164001 (32)
  
  
  *************************
  Routing Time Step Summary
  *************************
  Minimum Time Step           :     0.11 sec
  Average Time Step           :     1.42 sec
  Maximum Time Step           :     5.00 sec
  Percent in Steady State     :    -0.00
  Average Iterations per Step :     4.14
  Percent Not Converging      :    17.56
  
  
  ***************************
  Subcatchment Runoff Summary
  ***************************
  
  ------------------------------------------------------------------------------------------------------------------------------
                            Total      Total      Total      Total     Imperv       Perv      Total       Total     Peak  Runoff
                           Precip      Runon       Evap      Infil     Runoff     Runoff     Runoff      Runoff   Runoff   Coeff
  Subcatchment                 mm         mm         mm         mm         mm         mm         mm    10^6 ltr      LPS
  ------------------------------------------------------------------------------------------------------------------------------
  sub0                       6.67       0.00       0.00       0.44       6.16       0.02       6.18        0.01     1.96   0.927
  sub1                       6.67       0.00       0.00       0.72       5.85       0.01       5.86        0.04    11.52   0.879
  sub2                       6.67       0.00       0.00       2.46       4.12       0.01       4.13        0.04    10.38   0.619
  sub3                       6.67       0.00       0.00       2.46       4.09       0.01       4.09        0.09    21.78   0.614
  sub4                       6.67       0.00       0.00       0.73       5.71       0.01       5.71        0.12    24.74   0.856
  sub5                       6.67       0.00       0.00       0.45       6.11       0.01       6.12        0.07    20.48   0.918
  sub7                       6.67       0.00       0.00       0.58       6.01       0.02       6.03        0.02     6.91   0.904
  sub8                       6.67       0.00       0.00       0.58       6.00       0.02       6.02        0.04    12.43   0.902
  sub9                       6.67       0.00       0.00       0.58       6.00       0.02       6.01        0.03     9.24   0.902
  sub10                      6.67       0.00       0.00       0.52       6.05       0.01       6.07        0.07    20.31   0.909
  sub11                      6.67       0.00       0.00       0.52       6.07       0.02       6.09        0.07    23.25   0.912
  sub12                      6.67       0.00       0.00       0.84       5.76       0.03       5.78        0.05    18.70   0.867
  sub14                      6.67       0.00       0.00       0.58       6.00       0.02       6.01        0.06    18.12   0.901
  sub15                      6.67       0.00       0.00       1.99       4.61       0.02       4.63        0.08    24.74   0.693
  sub16                      6.67       0.00       0.00       2.18       4.43       0.03       4.46        0.05    16.70   0.668
  sub17                      6.67       0.00       0.00       2.11       4.49       0.02       4.52        0.04    13.62   0.677
  sub22                      6.67       0.00       0.00       2.85       3.76       0.02       3.78        0.24    79.29   0.567
  sub23                      6.67       0.00       0.00       2.45       4.16       0.02       4.18        0.20    67.12   0.626
  sub60                      6.67       0.00       0.00       0.80       4.39       0.00       4.39        1.33   129.46   0.658
  sub61                      6.67       0.00       0.00       1.13       4.59       0.00       4.59        1.41   161.77   0.688
  sub62                      6.67       0.00       0.00       0.53       4.95       0.00       4.95        1.52   165.50   0.742
  sub63                      6.67       0.00       0.00       1.93       4.05       0.00       4.05        1.23   150.77   0.607
  sub64                      6.67       0.00       0.00       1.00       4.20       0.00       4.20        1.28   123.01   0.630
  sub65                      6.67       0.00       0.00       0.87       4.26       0.00       4.26        1.31   124.88   0.639
  sub66                      6.67       0.00       0.00       1.93       3.64       0.00       3.64        1.12   112.59   0.546
  sub67                      6.67       0.00       0.00       0.53       5.34       0.00       5.34        1.65   211.70   0.800
  sub68                      6.67       0.00       0.00       0.93       4.85       0.00       4.85        1.49   178.70   0.728
  sub69                      6.67       0.00       0.00       1.00       5.14       0.00       5.14        1.20   176.59   0.771
  sub70                      6.67       5.25       0.00       4.02       6.58       0.03       6.61        1.51   150.51   0.555
  sub71                      6.67       0.00       0.00       0.53       4.77       0.00       4.77        1.13   115.68   0.716
  sub72                      6.67       0.00       0.00       0.47       3.55       0.00       3.55        0.72    56.57   0.532
  1                          6.67       6.44       0.00       1.32       6.94       1.29       8.23        1.93   147.49   0.628
  2                          6.67       0.00       0.00       2.92       1.54       0.47       2.01        0.80   108.93   0.301
  
  
  ****************************
  Subcatchment Washoff Summary
  ****************************
  
  ------------------------------------------------------------------------------------------
                                 COD            SS            TN            TP         NH4-N
  Subcatchment                    kg            kg            kg            kg            kg
  ------------------------------------------------------------------------------------------
  sub0                         1.091         2.066         0.018         0.001         0.009
  sub1                         4.413         8.465         0.082         0.006         0.039
  sub2                         2.520         4.651         0.055         0.004         0.025
  sub3                         6.105        11.114         0.131         0.009         0.060
  sub4                         9.666        18.413         0.196         0.011         0.094
  sub5                        10.200        19.325         0.178         0.013         0.086
  sub7                         2.334         4.570         0.044         0.003         0.021
  sub8                         3.502         6.990         0.070         0.004         0.034
  sub9                         2.975         5.858         0.058         0.004         0.028
  sub10                        8.447        16.218         0.153         0.011         0.074
  sub11                        8.371        16.306         0.155         0.010         0.075
  sub12                        7.034        13.483         0.125         0.009         0.060
  sub14                        6.327        12.340         0.119         0.008         0.057
  sub15                        7.450        13.845         0.145         0.010         0.067
  sub16                        4.749         8.837         0.091         0.007         0.042
  sub17                        4.356         8.034         0.080         0.006         0.037
  sub22                       21.998        40.013         0.423         0.031         0.196
  sub23                       13.428        25.347         0.294         0.019         0.133
  sub60                       76.113       131.324         1.595         0.093         0.761
  sub61                       96.289       165.838         1.847         0.121         0.886
  sub62                      101.294       177.589         2.059         0.124         0.985
  sub63                       71.956       122.341         1.522         0.103         0.697
  sub64                       91.517       151.983         1.735         0.122         0.822
  sub65                       93.805       156.457         1.793         0.123         0.852
  sub66                       54.685        91.797         1.198         0.075         0.554
  sub67                      152.529       265.968         2.755         0.197         1.326
  sub68                      107.969       188.270         2.138         0.138         1.015
  sub69                      100.839       178.901         1.932         0.131         0.918
  sub70                      153.939       272.191         3.191         0.213         1.476
  sub71                       66.918       118.210         1.453         0.080         0.692
  sub72                       45.487        74.085         0.885         0.058         0.424
  1                           86.931       154.919         1.858         0.125         0.847
  2                           12.643        20.973         0.400         0.024         0.167
  ------------------------------------------------------------------------------------------
  System                    1437.880      2506.719        28.778         1.893        13.560
  
  
  ******************
  Node Depth Summary
  ******************
  
  ---------------------------------------------------------------------------------
                                 Average  Maximum  Maximum  Time of Max    Reported
                                   Depth    Depth      HGL   Occurrence   Max Depth
  Node                 Type       Meters   Meters   Meters  days hr:min      Meters
  ---------------------------------------------------------------------------------
  WS02001211           JUNCTION     0.70     0.79     5.63     0  03:54        0.79
  WS02001212           JUNCTION     0.41     0.50     5.57     0  03:53        0.50
  WS02001213           JUNCTION     0.65     0.75     5.51     0  03:53        0.75
  WS02003069           JUNCTION     0.44     0.57     5.15     0  03:52        0.57
  WS02003072           JUNCTION     0.50     0.63     5.00     0  03:52        0.63
  WS02003073           JUNCTION     0.30     0.39     4.45     0  03:53        0.39
  WS02003060           JUNCTION     0.39     0.50     5.44     0  03:51        0.50
  WS02003066           JUNCTION     0.21     0.29     5.85     0  03:49        0.29
  WS02003059           JUNCTION     0.70     0.80     5.49     0  03:52        0.80
  WS02003067           JUNCTION     0.54     0.69     6.01     0  03:49        0.69
  WS02004401           JUNCTION     0.62     0.85     6.85     0  03:45        0.85
  WS02004402           JUNCTION     0.65     0.87     6.83     0  03:46        0.87
  WS02004403           JUNCTION     0.68     0.89     6.82     0  03:46        0.89
  WS02004404           JUNCTION     0.75     0.96     6.81     0  03:46        0.96
  WS02004406           JUNCTION     0.76     0.95     6.78     0  03:45        0.95
  WS02004409           JUNCTION     0.43     0.65     6.42     0  03:48        0.65
  WS02004410           JUNCTION     0.46     0.67     6.39     0  03:48        0.67
  WS02004411           JUNCTION     0.48     0.68     6.36     0  03:49        0.68
  WS02004412           JUNCTION     0.50     0.69     6.33     0  03:49        0.69
  WS02004413           JUNCTION     0.66     0.85     6.32     0  03:49        0.85
  WS02004405           JUNCTION     0.75     0.95     6.80     0  03:45        0.95
  WS02006109           JUNCTION     0.69     1.01     7.62     0  03:41        1.00
  WS02006110           JUNCTION     0.69     0.95     7.53     0  03:41        0.94
  WS02006111           JUNCTION     0.20     0.29     7.00     0  03:43        0.29
  WS02006112           JUNCTION     0.78     1.05     6.93     0  03:46        1.04
  WS02006113           JUNCTION     0.30     0.47     7.36     0  03:41        0.47
  WS02006115           JUNCTION     0.51     0.75     6.88     0  03:45        0.74
  WS02006116           JUNCTION     0.59     0.83     6.87     0  03:45        0.82
  WS02006230           JUNCTION     0.64     1.14     7.89     0  03:40        1.14
  WS02006231           JUNCTION     0.42     0.89     8.01     0  03:40        0.88
  WS02006232           JUNCTION     0.55     1.09     8.13     0  03:41        1.08
  WS02006234           JUNCTION     0.46     1.09     8.25     0  03:41        1.09
  WS02006235           JUNCTION     0.49     1.18     8.35     0  03:41        1.18
  WS02006238           JUNCTION     0.52     1.21     8.35     0  03:41        1.20
  WS02006240           JUNCTION     0.41     1.16     8.46     0  03:40        1.14
  WS02006242           JUNCTION     0.46     1.25     8.52     0  03:40        1.23
  WS02006243           JUNCTION     0.34     1.16     8.58     0  03:40        1.13
  WS02006245           JUNCTION     0.32     1.14     8.62     0  03:40        1.11
  WS02006247           JUNCTION     0.34     1.15     8.65     0  03:40        1.13
  WS02006248           JUNCTION     0.28     1.09     8.68     0  03:40        1.08
  WS02006249           JUNCTION     0.31     1.09     8.69     0  03:40        1.09
  WS02006239           JUNCTION     0.47     1.19     8.40     0  03:40        1.18
  WS02006251           JUNCTION     0.29     1.60     9.27     0  03:40        1.10
  WS02006252           JUNCTION     0.23     1.19     9.43     0  03:40        0.63
  WS02006253           JUNCTION     0.32     1.51     9.15     0  03:40        1.12
  WS02006256           JUNCTION     1.41     2.35     9.28     0  00:00        2.35
  WS02004138           JUNCTION     0.16     0.20     7.45     0  00:00        0.19
  WS02004139           JUNCTION     0.64     0.74     5.65     0  03:54        0.74
  WS02004407           JUNCTION     0.20     0.29     6.61     0  03:46        0.29
  WS02006228           JUNCTION     0.68     1.06     7.71     0  03:41        1.05
  WS02006229           JUNCTION     0.65     1.05     7.75     0  03:40        1.05
  WS02006280           JUNCTION     0.05     0.18     8.45     0  02:12        0.18
  WS02006284           JUNCTION     0.35     0.53     8.93     0  02:12        0.53
  WS02006287           JUNCTION     0.08     0.26     9.22     0  02:12        0.26
  WSF200               JUNCTION     0.19     0.30     5.53     0  03:49        0.30
  HS02004901           JUNCTION     0.11     0.27    10.09     0  02:10        0.27
  HS02004881           JUNCTION     0.01     0.03     9.06     0  02:11        0.03
  HS02004876           JUNCTION     0.03     0.11     9.14     0  02:06        0.11
  HS02004870           JUNCTION     0.01     0.05     9.34     0  02:12        0.05
  HS02004862           JUNCTION     0.01     0.06     9.45     0  02:13        0.06
  HS02004856           JUNCTION     0.07     0.12     9.54     0  02:13        0.12
  HS02004852           JUNCTION     0.01     0.04     9.55     0  02:13        0.04
  HS02004848           JUNCTION     0.01     0.04     9.64     0  02:12        0.04
  HS02004842           JUNCTION     0.33     0.37     9.64     0  02:12        0.37
  HS02004837           JUNCTION     0.03     0.06     9.64     0  02:12        0.06
  HS02004830           JUNCTION     0.04     0.07     9.54     0  02:12        0.07
  HS02004824           JUNCTION     0.02     0.05     9.45     0  02:15        0.05
  HS02004817           JUNCTION     0.42     0.57     9.42     0  02:13        0.57
  HS02004807           JUNCTION     0.11     0.24     9.41     0  02:13        0.24
  HS02004802           JUNCTION     0.15     0.28     9.41     0  02:12        0.28
  HS02004799           JUNCTION     0.10     0.31     9.52     0  02:10        0.31
  HS02004792           JUNCTION     0.02     0.13     9.65     0  02:10        0.13
  HS02004788           JUNCTION     0.02     0.09     9.99     0  02:11        0.09
  HS02004785           JUNCTION     0.03     0.16    10.06     0  02:10        0.16
  HS02004777           JUNCTION     0.13     0.29    10.09     0  02:10        0.29
  HS02004770           JUNCTION     0.10     0.26    10.09     0  02:10        0.26
  HS02004480           JUNCTION     0.06     0.25     9.49     0  02:11        0.25
  HS02004479           JUNCTION     0.10     0.28     9.49     0  02:11        0.28
  HS02004478           JUNCTION     0.05     0.16     9.39     0  02:12        0.16
  YS02001745           JUNCTION     0.68     0.85     8.37     0  03:57        0.85
  YS02001748           JUNCTION     1.07     1.31     8.38     0  03:31        1.29
  YS02001751           JUNCTION     1.25     1.52     8.39     0  03:30        1.49
  YS02001754           JUNCTION     1.50     1.80     8.41     0  03:31        1.78
  YS02001762           JUNCTION     1.69     2.02     8.42     0  03:28        1.99
  YS02001765           JUNCTION     1.64     1.97     8.42     0  03:28        1.93
  YS02001767           JUNCTION     1.61     1.92     8.41     0  03:32        1.90
  YS02001770           JUNCTION     1.60     1.90     8.40     0  03:37        1.89
  YS02001774           JUNCTION     1.67     1.97     8.39     0  03:42        1.95
  YS02001779           JUNCTION     1.42     1.68     8.37     0  03:17        1.68
  YS02001882           JUNCTION     0.33     0.61     7.33     0  02:36        0.61
  YS02001884           JUNCTION     0.42     0.71     7.33     0  02:37        0.71
  YS02001759           JUNCTION     1.72     2.06     8.42     0  03:32        2.04
  YS02001887           JUNCTION     0.50     0.79     7.33     0  02:37        0.79
  YS02001890           JUNCTION     0.53     0.82     7.33     0  02:36        0.82
  YS02001898           JUNCTION     0.30     0.58     7.31     0  02:35        0.57
  YS02001901           JUNCTION     0.42     0.70     7.31     0  02:38        0.70
  YS02001904           JUNCTION     0.40     0.68     7.31     0  02:40        0.68
  YS02001907           JUNCTION     0.73     1.04     7.33     0  02:41        1.02
  YS02001910           JUNCTION     0.51     0.80     7.31     0  02:35        0.80
  YS02001915           JUNCTION     0.32     0.59     7.31     0  02:40        0.59
  YS02001918           JUNCTION     0.10     0.24     7.30     0  02:36        0.24
  YS02001619           JUNCTION     1.21     1.61     8.54     0  07:50        1.61
  YS02001629           JUNCTION     1.55     1.85     8.40     0  07:50        1.85
  YS02001641           JUNCTION     1.66     1.96     8.40     0  07:50        1.96
  YS02001644           JUNCTION     1.66     1.92     8.35     0  03:21        1.92
  YS02001652           JUNCTION     1.51     2.00     8.60     0  03:33        1.90
  YS02001655           JUNCTION     1.28     1.88     8.73     0  03:33        1.70
  YS02001920           JUNCTION     0.20     0.31     7.31     0  02:47        0.30
  YS02001923           JUNCTION     0.08     0.11     7.37     0  03:01        0.11
  YS02001926           JUNCTION     0.16     0.22     7.66     0  03:01        0.22
  YS02001929           JUNCTION     0.08     0.11     7.81     0  03:01        0.11
  YS02001658           JUNCTION     1.01     2.10     9.24     0  03:02        1.46
  YS02001661           JUNCTION     0.79     1.75     9.16     0  03:33        1.24
  YS02001664           JUNCTION     0.35     0.56     8.49     0  03:33        0.56
  YS02001622           JUNCTION     1.23     1.62     8.52     0  07:50        1.62
  YS02001633           JUNCTION     1.64     2.02     8.48     0  07:50        2.02
  YS02001649           JUNCTION     1.70     2.05     8.44     0  03:26        2.04
  YS02001757           JUNCTION     1.82     2.16     8.42     0  03:33        2.14
  YS02001895           JUNCTION     0.30     0.57     7.32     0  02:37        0.57
  YS02001625           JUNCTION     1.51     1.78     8.38     0  03:18        1.78
  YS02163301           JUNCTION     1.58     1.94     8.46     0  07:50        1.94
  YS02163601           JUNCTION     1.70     2.06     8.46     0  07:50        2.06
  YS02164001           JUNCTION     1.64     1.97     8.43     0  07:50        1.97
  YS02001647           JUNCTION     1.49     1.80     8.41     0  03:31        1.78
  YSB1154              JUNCTION     0.24     0.43     9.49     0  02:11        0.43
  YSB6556              JUNCTION     0.13     0.32     9.49     0  02:11        0.32
  YSB1174              JUNCTION     0.19     0.38     9.49     0  02:11        0.38
  YSB1171              JUNCTION     0.39     0.59     9.49     0  02:11        0.59
  YS02006553           JUNCTION     0.73     1.04     7.33     0  02:41        1.03
  YS02006561           JUNCTION     0.16     0.33     6.99     0  02:41        0.32
  YS02006556           JUNCTION     0.70     1.00     7.31     0  02:38        0.99
  YS02006558           JUNCTION     0.74     1.04     7.31     0  02:39        1.03
  YS02001783           JUNCTION     0.30     0.84     6.98     0  02:23        0.80
  YS02001784           JUNCTION     0.34     1.00     7.07     0  02:23        0.83
  YS02001786           JUNCTION     0.30     0.87     6.90     0  02:23        0.82
  YS02001788           JUNCTION     0.24     1.00     6.98     0  02:23        0.81
  YS02001790           JUNCTION     0.33     1.41     7.05     0  04:47        1.08
  YS02001791           JUNCTION     0.30     1.37     6.84     0  02:21        1.20
  YS02001793           JUNCTION     0.40     1.81     6.65     0  02:23        1.78
  WSC                  OUTFALL      0.30     0.39     1.06     0  03:53        0.39
  JK-storage           STORAGE      2.32     5.80     6.60     0  02:22        5.80
  CC-storage           STORAGE      1.10     1.37     8.37     0  03:54        1.37
  XR-storage           STORAGE      3.20     7.45     5.45     0  07:50        7.45
  
  
  *******************
  Node Inflow Summary
  *******************
  
  -------------------------------------------------------------------------------------------------
                                  Maximum  Maximum                  Lateral       Total        Flow
                                  Lateral    Total  Time of Max      Inflow      Inflow     Balance
                                   Inflow   Inflow   Occurrence      Volume      Volume       Error
  Node                 Type           LPS      LPS  days hr:min    10^6 ltr    10^6 ltr     Percent
  -------------------------------------------------------------------------------------------------
  WS02001211           JUNCTION      7.35   389.13     0  04:30       0.207        8.32       0.239
  WS02001212           JUNCTION      0.00   390.87     0  04:29           0        8.31       0.134
  WS02001213           JUNCTION      0.00   392.61     0  04:29           0        8.31       0.203
  WS02003069           JUNCTION      0.32   904.85     0  03:51     0.00902        14.9       0.101
  WS02003072           JUNCTION      0.00   904.79     0  03:52           0        14.8       0.144
  WS02003073           JUNCTION      1.82   906.66     0  03:52      0.0514        14.9       0.152
  WS02003060           JUNCTION     16.53   904.41     0  03:51       0.466        14.9       0.097
  WS02003066           JUNCTION      0.00   514.93     0  03:49           0        6.16       0.042
  WS02003059           JUNCTION      0.00   395.50     0  04:29           0         8.3       0.272
  WS02003067           JUNCTION      0.00   514.69     0  03:49           0        6.16       0.099
  WS02004401           JUNCTION      0.00   538.67     0  03:44           0         6.3       0.204
  WS02004402           JUNCTION      0.00   535.60     0  03:44           0        6.29       0.203
  WS02004403           JUNCTION      0.00   533.69     0  03:45           0        6.28       0.194
  WS02004404           JUNCTION      0.16   533.12     0  03:45     0.00457        6.27       0.156
  WS02004406           JUNCTION      0.00   532.97     0  03:45           0        6.25       0.387
  WS02004409           JUNCTION      0.00   532.51     0  03:46           0        6.22       0.113
  WS02004410           JUNCTION      0.00   525.34     0  03:47           0        6.21       0.146
  WS02004411           JUNCTION      0.00   520.08     0  03:47           0         6.2       0.165
  WS02004412           JUNCTION      0.00   516.95     0  03:48           0        6.19       0.197
  WS02004413           JUNCTION      0.00   515.31     0  03:48           0        6.18       0.320
  WS02004405           JUNCTION      0.04   533.09     0  03:45     0.00107        6.26       0.234
  WS02006109           JUNCTION      1.23   565.78     0  03:41      0.0347        6.32       0.101
  WS02006110           JUNCTION      0.00   565.86     0  03:41           0        6.32       0.139
  WS02006111           JUNCTION      0.00   587.55     0  03:41           0         6.3       0.019
  WS02006112           JUNCTION     13.62   568.72     0  03:43      0.0388        6.34       0.332
  WS02006113           JUNCTION      0.00   565.94     0  03:41           0        6.31       0.044
  WS02006115           JUNCTION      0.00   566.28     0  03:43           0        6.32       0.153
  WS02006116           JUNCTION      0.00   549.61     0  03:43           0        6.31       0.130
  WS02006230           JUNCTION     10.28   526.71     0  03:42        0.29        5.08       0.143
  WS02006231           JUNCTION      0.00   516.41     0  03:42           0        4.79      -0.012
  WS02006232           JUNCTION      0.00   516.05     0  03:42           0        4.79       0.136
  WS02006234           JUNCTION      0.00   516.79     0  03:42           0        4.79      -0.034
  WS02006235           JUNCTION      0.00   517.84     0  03:42           0        4.86       0.081
  WS02006238           JUNCTION      0.00   350.01     0  07:11           0        2.13      -0.060
  WS02006240           JUNCTION      0.00   349.53     0  07:11           0        2.07       0.047
  WS02006242           JUNCTION      0.00   352.12     0  06:12           0        2.05       0.045
  WS02006243           JUNCTION      0.00   361.08     0  06:11           0        2.03      -0.178
  WS02006245           JUNCTION      0.00   366.39     0  06:11           0        2.03       0.421
  WS02006247           JUNCTION      0.00   370.78     0  06:11           0        2.02       0.008
  WS02006248           JUNCTION      0.00   375.62     0  06:11           0        2.02      -0.155
  WS02006249           JUNCTION      0.00   430.95     0  03:40           0        2.02       0.209
  WS02006239           JUNCTION      0.00   350.02     0  07:11           0         2.1      -0.255
  WS02006251           JUNCTION      0.08   412.49     0  03:40     0.00217        2.06      -0.029
  WS02006252           JUNCTION      0.00   399.49     0  06:10           0         1.8       0.004
  WS02006253           JUNCTION      1.96   101.27     0  03:39     0.00501       0.261       0.013
  WS02006256           JUNCTION      0.00   983.00     0  02:40           0        5.46      -0.008
  WS02004138           JUNCTION      0.00   380.00     0  00:00           0        8.12       0.050
  WS02004139           JUNCTION      0.32   395.85     0  00:00     0.00905        8.13       0.325
  WS02004407           JUNCTION      0.00   532.58     0  03:46           0        6.22       0.045
  WS02006228           JUNCTION      0.00   565.03     0  03:41           0        6.29       0.090
  WS02006229           JUNCTION      0.00   561.00     0  03:42           0        6.31       0.162
  WS02006280           JUNCTION      0.00   319.49     0  02:12           0        1.24       0.005
  WS02006284           JUNCTION      0.10   319.47     0  02:12      0.0027        1.24       0.097
  WS02006287           JUNCTION      0.00   319.32     0  02:12           0        1.24       0.058
  WSF200               JUNCTION      0.00   515.02     0  03:49           0        6.15       0.033
  HS02004901           JUNCTION     16.70    16.70     0  02:07      0.0466      0.0468       3.902
  HS02004881           JUNCTION      6.91    63.44     0  02:11      0.0203       0.216       0.052
  HS02004876           JUNCTION     11.52    56.79     0  02:12       0.039       0.196       0.272
  HS02004870           JUNCTION     12.43    45.50     0  02:12      0.0384       0.158       0.067
  HS02004862           JUNCTION     10.58    33.76     0  02:12      0.0441       0.119       0.141
  HS02004856           JUNCTION      9.24    23.27     0  02:12      0.0289      0.0765       1.918
  HS02004852           JUNCTION      0.00    14.51     0  02:12           0      0.0477       0.109
  HS02004848           JUNCTION     21.78    21.78     0  02:14      0.0921      0.0921       0.047
  HS02004842           JUNCTION      0.00     7.91     0  02:22           0      0.0575      29.210
  HS02004837           JUNCTION     26.66    33.41     0  02:11       0.246        0.29       0.280
  HS02004830           JUNCTION      0.15    33.54     0  02:12     0.00423       0.281       0.441
  HS02004824           JUNCTION     24.79    58.12     0  02:15       0.121         0.4       0.134
  HS02004817           JUNCTION      0.60    58.71     0  02:15      0.0169       0.417       4.169
  HS02004807           JUNCTION     23.25    80.27     0  02:13      0.0707       0.471       0.906
  HS02004802           JUNCTION      0.00    80.75     0  02:14           0       0.466       0.879
  HS02004799           JUNCTION     18.12   203.47     0  02:10      0.0572        0.67       0.357
  HS02004792           JUNCTION     79.57   185.61     0  02:10       0.247       0.613       0.066
  HS02004788           JUNCTION     26.41   107.82     0  02:10       0.127       0.368       0.106
  HS02004785           JUNCTION      0.15    81.74     0  02:10     0.00423       0.243       0.198
  HS02004777           JUNCTION      0.03    82.04     0  02:09    0.000846       0.243       2.174
  HS02004770           JUNCTION     67.12    82.98     0  02:08       0.199       0.244       1.283
  HS02004480           JUNCTION      0.00   240.41     0  02:10           0       0.787       0.099
  HS02004479           JUNCTION      0.00    37.61     0  02:12           0       0.129       0.569
  HS02004478           JUNCTION      0.00   319.28     0  02:12           0        1.24       0.047
  YS02001745           JUNCTION    129.47   240.62     0  03:03        1.33        1.34       0.864
  YS02001748           JUNCTION      0.04   358.69     0  03:04     0.00127        1.33       1.689
  YS02001751           JUNCTION      0.01   349.58     0  02:38     0.00031         1.3       1.741
  YS02001754           JUNCTION      0.26   196.76     0  02:43     0.00733        1.28       1.969
  YS02001762           JUNCTION      0.00   204.14     0  02:39           0        1.44       1.488
  YS02001765           JUNCTION      0.00   198.76     0  02:39           0        1.44       1.716
  YS02001767           JUNCTION      0.54   195.25     0  02:39      0.0151        1.46       2.502
  YS02001770           JUNCTION    165.65   187.20     0  02:38        1.53        1.54       2.082
  YS02001774           JUNCTION      0.00    54.53     0  02:09           0      0.0718      53.625
  YS02001779           JUNCTION      0.01    36.91     0  02:18    0.000141      0.0348      78.161
  YS02001882           JUNCTION      0.00    10.77     0  02:57           0       0.011      20.585
  YS02001884           JUNCTION      0.00    15.25     0  02:04           0      0.0374      16.559
  YS02001759           JUNCTION    161.81   371.08     0  02:39        1.42        2.82       0.817
  YS02001887           JUNCTION    212.15   222.98     0  02:43        1.66        1.68       0.455
  YS02001890           JUNCTION      0.00   219.18     0  02:37           0        1.65       0.508
  YS02001898           JUNCTION      0.00   221.15     0  02:35           0        1.63       0.158
  YS02001901           JUNCTION      0.00   224.91     0  02:39           0        1.63       0.370
  YS02001904           JUNCTION      0.00   225.92     0  02:40           0        1.63       0.341
  YS02001907           JUNCTION      0.00   421.59     0  02:57           0        3.54       0.638
  YS02001910           JUNCTION      0.00   194.04     0  02:53           0        1.92       0.561
  YS02001915           JUNCTION    115.70   183.67     0  02:54        1.13        1.93       0.265
  YS02001918           JUNCTION      0.00    64.18     0  02:56           0       0.801       0.180
  YS02001619           JUNCTION    112.59   112.59     0  02:46        1.12        1.12       1.093
  YS02001629           JUNCTION      0.00   204.01     0  02:42           0        1.04       2.830
  YS02001641           JUNCTION      0.00   270.78     0  03:03           0        2.25       0.955
  YS02001644           JUNCTION    123.05   493.58     0  03:57        1.28        4.67       0.569
  YS02001652           JUNCTION      0.00   208.18     0  02:35           0        1.17       2.096
  YS02001655           JUNCTION      0.15   358.15     0  02:46     0.00434         1.2       1.864
  YS02001920           JUNCTION      2.87    59.47     0  03:01      0.0809       0.803       0.298
  YS02001923           JUNCTION      0.04    56.60     0  03:01     0.00106       0.723       0.054
  YS02001926           JUNCTION      0.05    56.61     0  03:01     0.00147       0.724       0.370
  YS02001929           JUNCTION     56.57    56.57     0  03:01       0.723       0.723       0.053
  YS02001658           JUNCTION      0.00   531.80     0  02:58           0        1.26       1.520
  YS02001661           JUNCTION      0.00   427.66     0  03:25           0         1.6       0.562
  YS02001664           JUNCTION    150.77   329.75     0  03:25        1.23        1.55       0.438
  YS02001622           JUNCTION      0.00   153.90     0  02:42           0         1.1       2.964
  YS02001633           JUNCTION    125.08   269.95     0  02:57        1.32        2.31       1.411
  YS02001649           JUNCTION      0.00   566.32     0  02:40           0         3.7       1.018
  YS02001757           JUNCTION      0.00   982.94     0  02:41           0        6.56       1.429
  YS02001895           JUNCTION      0.00   221.42     0  02:37           0        1.64       0.253
  YS02001625           JUNCTION      0.00   204.44     0  02:42           0        1.07       3.792
  YS02163301           JUNCTION      0.00   145.20     0  02:57           0        1.02       2.396
  YS02163601           JUNCTION      0.11   270.00     0  02:57      0.0031        2.27       1.337
  YS02164001           JUNCTION      0.00   269.38     0  02:57           0        2.25       0.914
  YS02001647           JUNCTION      0.00   393.04     0  03:03           0        2.99       0.946
  YSB1154              JUNCTION     20.48    20.48     0  02:10      0.0694      0.0705       2.089
  YSB6556              JUNCTION      0.00    20.43     0  02:11           0      0.0714       1.777
  YSB1174              JUNCTION     18.70    18.70     0  02:06      0.0505      0.0512       2.568
  YSB1171              JUNCTION      0.00    37.52     0  02:11           0       0.128       5.191
  YS02006553           JUNCTION      0.00   407.88     0  02:44           0        3.53       0.410
  YS02006561           JUNCTION      0.00   629.27     0  02:38           0        4.99      -0.004
  YS02006556           JUNCTION      0.00   404.81     0  02:43           0        3.53       0.301
  YS02006558           JUNCTION    179.58   598.99     0  02:43        1.52        5.02       0.105
  YS02001783           JUNCTION      0.00   595.03     0  02:38           0        4.99       0.034
  YS02001784           JUNCTION      1.06   595.98     0  02:38      0.0299        5.02       0.050
  YS02001786           JUNCTION      0.06   618.02     0  02:39     0.00159        5.02       0.054
  YS02001788           JUNCTION      0.07   662.15     0  02:39       0.002        5.02       0.034
  YS02001790           JUNCTION      0.15   708.03     0  02:38     0.00437        5.02       0.018
  YS02001791           JUNCTION      0.00   754.62     0  02:39           0        5.02       0.024
  YS02001793           JUNCTION      0.00   804.25     0  02:40           0        5.03      -0.035
  WSC                  OUTFALL       0.00   906.88     0  03:53           0        14.8       0.000
  JK-storage           STORAGE       0.00   803.93     0  02:40           0        5.18     -15.442
  CC-storage           STORAGE       0.00   985.81     0  02:41           0         5.7       1.157
  XR-storage           STORAGE     436.93   436.93     0  02:51        8.38        8.98      -0.455
  
  
  **********************
  Node Surcharge Summary
  **********************
  
  Surcharging occurs when water rises above the top of the highest conduit.
  ---------------------------------------------------------------------
                                               Max. Height   Min. Depth
                                   Hours       Above Crown    Below Rim
  Node                 Type      Surcharged         Meters       Meters
  ---------------------------------------------------------------------
  WS02006109           JUNCTION        1.30          0.185        1.635
  WS02006110           JUNCTION        0.11          0.036        1.814
  WS02006112           JUNCTION        0.17          0.052        1.628
  WS02006230           JUNCTION        0.07          0.061        1.509
  WS02006231           JUNCTION        0.21          0.180        1.350
  WS02006232           JUNCTION        0.90          0.387        1.093
  WS02006234           JUNCTION        0.57          0.373        0.867
  WS02006235           JUNCTION        0.75          0.474        0.816
  WS02006238           JUNCTION        0.79          0.488        0.942
  WS02006240           JUNCTION        0.40          0.455        0.935
  WS02006242           JUNCTION        0.51          0.521        0.299
  WS02006243           JUNCTION        0.30          0.447        0.323
  WS02006245           JUNCTION        0.26          0.428        0.422
  WS02006247           JUNCTION        0.27          0.440        0.320
  WS02006248           JUNCTION        0.22          0.373        0.007
  WS02006249           JUNCTION        0.23          0.390        0.000
  WS02006239           JUNCTION        0.57          0.450        0.840
  WS02006251           JUNCTION        0.06          0.565        0.615
  WS02006252           JUNCTION        0.57          0.788        0.312
  WS02006253           JUNCTION        0.07          0.466        2.014
  WS02006256           JUNCTION        6.45          2.050        0.000
  WS02006228           JUNCTION        1.24          0.228        1.972
  YS02001748           JUNCTION        4.67          0.225        0.965
  YS02001751           JUNCTION        4.95          0.516        0.684
  YS02001754           JUNCTION        5.35          0.750        0.400
  YS02001762           JUNCTION        5.56          1.021        0.129
  YS02001765           JUNCTION        5.54          0.968        0.132
  YS02001767           JUNCTION        5.52          0.921        0.109
  YS02001770           JUNCTION        5.51          0.874        0.046
  YS02001774           JUNCTION        5.55          0.970        0.080
  YS02001779           JUNCTION        5.28          0.680        0.000
  YS02001759           JUNCTION        5.57          1.056        0.154
  YS02001907           JUNCTION        0.10          0.029        0.921
  YS02001619           JUNCTION        4.91          0.610        0.000
  YS02001629           JUNCTION        4.93          0.470        0.000
  YS02001641           JUNCTION        5.55          0.959        0.141
  YS02001644           JUNCTION        5.55          0.920        0.000
  YS02001652           JUNCTION        5.39          0.974        0.156
  YS02001655           JUNCTION        5.00          0.879        0.321
  YS02001658           JUNCTION        4.70          1.098        0.202
  YS02001661           JUNCTION        0.02          0.684        0.706
  YS02001622           JUNCTION        4.97          0.617        0.003
  YS02001633           JUNCTION        5.53          1.003        0.057
  YS02001649           JUNCTION        5.56          1.050        0.000
  YS02001757           JUNCTION        5.62          1.159        0.051
  YS02001625           JUNCTION        5.48          0.780        0.000
  YS02163301           JUNCTION        5.52          0.943        0.087
  YS02163601           JUNCTION        5.56          1.057        0.023
  YS02164001           JUNCTION        5.53          0.970        0.130
  YS02001647           JUNCTION        5.43          0.798        0.102
  YS02006553           JUNCTION        0.43          0.043        1.147
  YS02001783           JUNCTION        0.01          0.036        1.564
  YS02001784           JUNCTION        0.04          0.200        1.290
  YS02001786           JUNCTION        0.01          0.066        1.364
  YS02001788           JUNCTION        0.01          0.199        1.281
  YS02001790           JUNCTION        0.62          0.608        0.549
  YS02001791           JUNCTION        0.85          0.568        1.352
  YS02001793           JUNCTION        1.18          0.814        1.786
  
  
  *********************
  Node Flooding Summary
  *********************
  
  Flooding refers to all water that overflows a node, whether it ponds or not.
  --------------------------------------------------------------------------
                                                             Total   Maximum
                                 Maximum   Time of Max       Flood    Ponded
                        Hours       Rate    Occurrence      Volume     Depth
  Node                 Flooded       LPS   days hr:min    10^6 ltr    Meters
  --------------------------------------------------------------------------
  WS02006249              0.04    125.28      0  03:40       0.006     0.000
  WS02006256              2.39    790.50      0  03:41       2.684     0.000
  YS02001779              1.03     17.78      0  03:38       0.011     0.000
  YS02001619              0.01      1.29      0  07:50       0.000     0.000
  YS02001629              0.01      3.26      0  07:50       0.000     0.000
  YS02001644              3.52    493.39      0  03:57       2.806     0.000
  YS02001649              0.01     17.25      0  03:33       0.000     0.000
  YS02001625              0.03     13.57      0  03:21       0.000     0.000
  JK-storage              0.44    546.96      0  02:24       0.589     0.000
  
  
  **********************
  Storage Volume Summary
  **********************
  
  --------------------------------------------------------------------------------------------------
                         Average     Avg  Evap Exfil       Maximum     Max    Time of Max    Maximum
                          Volume    Pcnt  Pcnt  Pcnt        Volume    Pcnt     Occurrence    Outflow
  Storage Unit           1000 m3    Full  Loss  Loss       1000 m3    Full    days hr:min        LPS
  --------------------------------------------------------------------------------------------------
  JK-storage               0.116      40     0     0         0.291     100       0  02:22     983.00
  CC-storage               3.073      20     0     0         3.816      24       0  03:54     399.49
  XR-storage               0.384      41     0     0         0.895      97       0  07:50     380.00
  
  
  ***********************
  Outfall Loading Summary
  ***********************
  
  ---------------------------------------------------------------------------------------------------------------------------------
                         Flow       Avg       Max       Total         Total         Total         Total         Total         Total
                         Freq      Flow      Flow      Volume           COD            SS            TN            TP         NH4-N
  Outfall Node           Pcnt       LPS       LPS    10^6 ltr            kg            kg            kg            kg            kg
  ---------------------------------------------------------------------------------------------------------------------------------
  WSC                   99.98    586.62    906.88      14.842      1862.570      3059.849       146.676        17.835        90.338
  ---------------------------------------------------------------------------------------------------------------------------------
  System                99.98    586.62    906.88      14.842      1862.570      3059.849       146.676        17.835        90.338
  
  
  ********************
  Link Flow Summary
  ********************
  
  -----------------------------------------------------------------------------
                                 Maximum  Time of Max   Maximum    Max/    Max/
                                  |Flow|   Occurrence   |Veloc|    Full    Full
  Link                 Type          LPS  days hr:min     m/sec    Flow   Depth
  -----------------------------------------------------------------------------
  WS02003066WSF200     CONDUIT    515.02     0  03:49      2.80    0.09    0.22
  WS02006287WS02006284 CONDUIT    319.37     0  02:12      1.88    0.15    0.27
  WS02006284WS02006280 CONDUIT    319.49     0  02:12      2.12    0.13    0.25
  WS02006280WS02006229 CONDUIT    319.49     0  02:12      3.41    0.07    0.18
  WS02006229WS02006228 CONDUIT    565.03     0  03:41      1.12    1.87    1.00
  WS02006256WS02006235 CONDUIT    288.92     0  00:00      4.23    3.06    1.00
  WS02006253WS02006251 CONDUIT     95.73     0  03:39      0.58    0.29    1.00
  WS02006252WS02006251 CONDUIT    406.97     0  03:40      3.24    1.49    1.00
  WS02006251WS02006249 CONDUIT    430.95     0  03:40      1.13    1.24    1.00
  WS02006249WS02006248 CONDUIT    375.62     0  06:11      1.19    2.06    1.00
  WS02006248WS02006247 CONDUIT    370.78     0  06:11      1.16    0.81    1.00
  WS02006247WS02006245 CONDUIT    366.39     0  06:11      1.14    2.91    1.00
  WS02006245WS02006243 CONDUIT    361.08     0  06:11      1.18    1.07    1.00
  WS02006243WS02006242 CONDUIT    352.12     0  06:12      1.07    0.75    1.00
  WS02006242WS02006240 CONDUIT    349.53     0  07:11      1.00    1.39    1.00
  WS02006240WS02006239 CONDUIT    350.02     0  07:11      1.04    1.10    1.00
  WS02006239WS02006238 CONDUIT    350.01     0  07:11      0.95    1.12    1.00
  WS02006238WS02006235 CONDUIT    350.01     0  07:11      1.45    0.78    1.00
  WS02006235WS02006234 CONDUIT    516.79     0  03:42      1.34    5.45    1.00
  WS02006234WS02006232 CONDUIT    516.05     0  03:42      1.39    1.04    1.00
  WS02006232WS02006231 CONDUIT    516.41     0  03:42      1.34    1.08    1.00
  WS02006231WS02006230 CONDUIT    516.43     0  03:42      1.36    7.83    1.00
  WS02006230WS02006229 CONDUIT    526.11     0  03:42      1.37   11.71    1.00
  WS02006228WS02006109 CONDUIT    564.55     0  03:41      1.12    2.47    1.00
  WS02006116WS02004401 CONDUIT    538.67     0  03:44      1.00    0.74    0.84
  WS02006115WS02006116 CONDUIT    549.61     0  03:43      1.02    0.71    0.76
  WS02006113WS02006111 CONDUIT    587.55     0  03:41      2.50    0.70    0.48
  WS02006112WS02006115 CONDUIT    566.28     0  03:43      0.80    0.33    0.87
  WS02006111WS02006112 CONDUIT    568.31     0  03:43      1.60    0.27    0.68
  WS02006110WS02006113 CONDUIT    565.94     0  03:41      1.33    0.51    0.79
  WS02006109WS02006110 CONDUIT    565.86     0  03:41      1.13    1.09    1.00
  WS02004411WS02004412 CONDUIT    516.95     0  03:48      0.91    0.73    0.68
  WS02004401WS02004402 CONDUIT    535.60     0  03:44      1.00    0.64    0.86
  WS02004413WS02003067 CONDUIT    514.69     0  03:49      1.08    0.22    0.58
  WS02004412WS02004413 CONDUIT    515.31     0  03:48      0.80    0.35    0.77
  WS02004410WS02004411 CONDUIT    520.08     0  03:47      0.95    0.71    0.67
  WS02004409WS02004410 CONDUIT    525.34     0  03:47      1.01    0.68    0.66
  WS02004407WS02004409 CONDUIT    532.51     0  03:46      1.54    0.19    0.47
  WS02004406WS02004407 CONDUIT    532.58     0  03:46      1.03    0.24    0.62
  WS02004405WS02004406 CONDUIT    532.97     0  03:45      1.10    1.05    0.95
  WS02004404WS02004405 CONDUIT    533.05     0  03:45      1.15    5.22    0.96
  WS02004403WS02004404 CONDUIT    532.96     0  03:45      0.98    0.39    0.92
  WS02004402WS02004403 CONDUIT    533.69     0  03:45      1.02    0.77    0.88
  WS02004139WS02001211 CONDUIT    381.79     0  04:30      0.90    0.48    0.59
  WS02004138WS02004139 CONDUIT    395.52     0  00:00      3.64    0.08    0.44
  WS02003067WS02003066 CONDUIT    514.93     0  03:49      1.18    0.17    0.41
  WS02001213WS02003059 CONDUIT    395.50     0  04:29      0.89    0.65    0.77
  WS02001212WS02001213 CONDUIT    392.61     0  04:29      1.32    0.61    0.47
  WS02001211WS02001212 CONDUIT    390.87     0  04:29      0.78    0.30    0.65
  WS02003072WS02003073 CONDUIT    904.84     0  03:52      1.70    1.95    0.48
  WS02003069WS02003072 CONDUIT    904.79     0  03:52      1.60    0.44    0.50
  WS02003060WS02003069 CONDUIT    904.53     0  03:51      1.85    0.35    0.45
  WS02003059WS02003060 CONDUIT    399.59     0  04:29      0.95    0.26    0.65
  HS02004901HS02004770 CONDUIT     16.01     0  02:09      0.06    0.06    0.38
  HS02004876HS02004881 CONDUIT     56.82     0  02:11      0.82    0.60    0.10
  HS02004870HS02004876 CONDUIT     45.47     0  02:12      0.56    0.03    0.12
  HS02004842HS02004848 CONDUIT      7.91     0  02:22      0.04    0.00    0.29
  HS02004837HS02004842 CONDUIT      8.22     0  02:23      0.42    0.00    0.30
  HS02004830HS02004837 CONDUIT     33.39     0  02:12      0.51    0.03    0.09
  HS02004824HS02004830 CONDUIT     33.53     0  02:13      0.55    0.04    0.09
  HS02004817HS02004824 CONDUIT     58.11     0  02:15      0.19    0.03    0.44
  HS02004770HS02004777 CONDUIT     82.01     0  02:09      0.30    0.15    0.39
  HS02004799HS02004480 CONDUIT    203.21     0  02:10      0.74    0.26    0.39
  HS02004792HS02004799 CONDUIT    185.50     0  02:10      0.84    0.11    0.31
  HS02004788HS02004792 CONDUIT    107.74     0  02:11      0.97    0.07    0.16
  HS02004785HS02004788 CONDUIT     81.66     0  02:11      0.63    0.62    0.18
  HS02004777HS02004785 CONDUIT     81.59     0  02:10      0.36    0.10    0.32
  HS02004480HS02004478 CONDUIT    240.37     0  02:11      1.15    1.01    0.30
  HS02004479HS02004480 CONDUIT     37.87     0  02:12      0.17    0.04    0.38
  HS02004862HS02004870 CONDUIT     33.72     0  02:13      0.57    0.04    0.08
  HS02004848HS02004852 CONDUIT     14.51     0  02:12      0.39    0.02    0.05
  HS02004856HS02004862 CONDUIT     23.22     0  02:13      0.42    0.02    0.08
  HS02004852HS02004856 CONDUIT     14.47     0  02:13      0.19    0.02    0.11
  HS02004802HS02004478 CONDUIT     81.38     0  02:15      0.38    0.07    0.32
  HS02004478WS02006287 CONDUIT    319.32     0  02:12      1.58    0.09    0.22
  HS02004817HS02004807 CONDUIT     59.55     0  02:16      0.15    0.04    0.58
  HS02004807HS02004802 CONDUIT     80.75     0  02:14      0.32    0.15    0.36
  YS02001759YS02001757 CONDUIT    374.92     0  02:39      0.48    0.27    1.00
  YS02001762YS02001759 CONDUIT    209.36     0  02:39      0.27    0.24    1.00
  YS02001765YS02001762 CONDUIT    204.14     0  02:39      0.26    0.19    1.00
  YS02001770YS02001767 CONDUIT    194.71     0  02:39      0.30    0.77    1.00
  YS02001774YS02001770 CONDUIT     54.53     0  02:09      0.14    0.03    1.00
  YS02001779YS02001774 CONDUIT     36.91     0  02:18      0.07    0.02    1.00
  YS02001649YS02001757 CONDUIT    567.45     0  02:40      0.72    0.34    1.00
  YS02001767YS02001765 CONDUIT    198.76     0  02:39      0.27    0.25    1.00
  YS02006561YS02001783 CONDUIT    595.03     0  02:38      2.07    0.31    0.68
  YS02001783YS02001784 CONDUIT    594.92     0  02:38      1.51    0.82    1.00
  YS02001784YS02001785 CONDUIT    617.96     0  02:39      1.63    1.44    1.00
  YS02001788YS02001790 CONDUIT    707.88     0  02:38      2.17    0.52    1.00
  YS02001790YS02001791 CONDUIT    754.62     0  02:39      2.58    0.82    1.00
  YS02001791YS02001793 CONDUIT    804.25     0  02:40      5.28    0.35    1.00
  YS02001910YS02001907 CONDUIT    198.01     0  02:57      0.49    0.11    0.90
  YS02001786YS02001788 CONDUIT    662.07     0  02:39      2.08    1.28    1.00
  YS02001915YS02001910 CONDUIT    194.04     0  02:53      0.45    0.10    0.69
  YS02001918YS02001915 CONDUIT     69.21     0  02:54      0.44    0.04    0.41
  YS02001923YS02001920 CONDUIT     56.60     0  03:01      0.55    0.03    0.21
  YS02001926YS02001923 CONDUIT     56.56     0  03:01      0.62    0.08    0.17
  YS02001929YS02001926 CONDUIT     56.56     0  03:01      0.67    0.03    0.16
  YS02001920YS02001918 CONDUIT     64.18     0  02:56      0.55    0.06    0.27
  YS02001629YS02163301 CONDUIT    145.20     0  02:57      0.18    0.18    1.00
  YS02001619YS02001622 CONDUIT    153.90     0  02:42      0.71    0.23    1.00
  YS02001622YS02001625 CONDUIT    204.44     0  02:42      0.30    0.11    1.00
  YS02001625YS02001629 CONDUIT    204.01     0  02:42      0.29    0.10    1.00
  YS02163301YS02001633 CONDUIT    145.57     0  03:03      0.19    0.14    1.00
  YS02163601YS02164001 CONDUIT    269.38     0  02:57      0.34    0.24    1.00
  YS02164001YS02001641 CONDUIT    270.78     0  03:03      0.34    0.37    1.00
  YS02001641YS02001644 CONDUIT    272.71     0  03:03      0.35    0.88    1.00
  YS02001647YS02001649 CONDUIT    394.68     0  03:03      0.50    0.21    1.00
  YS02006553YS02006556 CONDUIT    404.81     0  02:43      0.52    0.35    0.98
  YS02006556YS02006558 CONDUIT    421.48     0  02:44      0.54    0.33    1.00
  YSB6556YSB1171       CONDUIT     20.76     0  02:13      0.08    0.02    0.65
  YS02001907YS02006553 CONDUIT    407.88     0  02:44      0.45    0.48    1.00
  YS02006558YS02006561 CONDUIT    629.27     0  02:38      3.06    1.39    0.71
  YS02001633YS02163601 CONDUIT    269.89     0  02:57      0.34    0.28    1.00
  YS02001644YS02001647 CONDUIT    393.04     0  03:03      0.50    0.23    1.00
  YS02001745YS02001748 CONDUIT    358.64     0  03:04      1.57    0.14    0.93
  YS02001748YS02001751 CONDUIT    349.57     0  02:38      1.19    0.18    1.00
  YS02001751YS02001754 CONDUIT    196.50     0  02:43      0.91    0.09    1.00
  YS02001754YS02001757 CONDUIT    195.44     0  02:43      0.33    0.08    1.00
  YS02001882YS02001884 CONDUIT     10.98     0  02:54      0.08    0.01    0.63
  YS02001884YS02001887 CONDUIT     16.49     0  02:43      0.05    0.02    0.73
  YS02001890YS02001895 CONDUIT    221.42     0  02:37      0.38    0.10    0.69
  YS02001895YS02001898 CONDUIT    221.15     0  02:35      0.50    0.38    0.56
  YS02001898YS02001901 CONDUIT    224.91     0  02:39      0.43    0.15    0.64
  YS02001901YS02001904 CONDUIT    225.92     0  02:40      0.40    0.35    0.69
  YS02001904YS02001907 CONDUIT    229.99     0  02:31      0.33    0.08    0.84
  YS02001887YS02001890 CONDUIT    219.18     0  02:37      0.34    0.38    0.78
  YS02001652YS02001649 CONDUIT    210.00     0  02:35      0.39    0.10    1.00
  YS02001655YS02001652 CONDUIT    208.18     0  02:35      0.94    0.10    1.00
  YS02001658YS02001655 CONDUIT    358.00     0  02:46      1.38    0.15    1.00
  YS02001661YS02001658 CONDUIT    531.80     0  02:58      1.65    0.21    1.00
  YS02001664YS02001661 CONDUIT    427.66     0  03:25      1.43    0.13    0.71
  YSB1154YSB6556       CONDUIT     20.43     0  02:11      0.19    0.04    0.54
  YSB1174YSB1171       CONDUIT     17.81     0  02:07      0.07    0.03    0.66
  YSB1171HS02004479    CONDUIT     37.61     0  02:12      0.54    0.03    0.51
  HS02004881HS02006253 CONDUIT     63.43     0  02:11      2.01    0.01    0.51
  YS02001793JiankangQianchi CONDUIT    803.93     0  02:40     16.08    0.06    1.00
  YS02001757CaochengTiaoxuchi CONDUIT    985.81     0  02:41      1.95    0.43    1.00
  WSF200WS02003060     CONDUIT    515.53     0  03:49      2.11    0.11    0.33
  1                    CONDUIT    906.88     0  03:53      3.24    0.32    0.39
  CC-Pump-1            PUMP       200.00     0  03:30              1.00
  CC-Pump-2            PUMP       199.73     0  06:10              1.00
  JK-Pump-1            PUMP       300.00     0  00:00              1.00
  JK-Pump-2            PUMP       683.00     0  02:40              1.00
  XR-Pump-1            PUMP        95.00     0  00:00              1.00
  XR-Pump-2            PUMP        95.00     0  00:00              1.00
  XR-Pump-3            PUMP        95.00     0  00:00              1.00
  XR-Pump-4            PUMP        95.00     0  00:00              1.00
  
  
  ***************************
  Flow Classification Summary
  ***************************
  
  -------------------------------------------------------------------------------------
                      Adjusted    ---------- Fraction of Time in Flow Class ---------- 
                       /Actual         Up    Down  Sub   Sup   Up    Down  Norm  Inlet 
  Conduit               Length    Dry  Dry   Dry   Crit  Crit  Crit  Crit  Ltd   Ctrl  
  -------------------------------------------------------------------------------------
  WS02003066WSF200        1.00   0.01  0.02  0.00  0.00  0.96  0.00  0.00  0.85  0.00
  WS02006287WS02006284    1.00   0.04  0.02  0.00  0.70  0.24  0.00  0.00  0.76  0.00
  WS02006284WS02006280    1.00   0.05  0.00  0.00  0.00  0.00  0.00  0.95  0.00  0.00
  WS02006280WS02006229    1.00   0.05  0.00  0.00  0.00  0.00  0.00  0.95  0.00  0.00
  WS02006229WS02006228    1.00   0.00  0.00  0.00  0.99  0.00  0.00  0.01  0.00  0.00
  WS02006256WS02006235    1.00   0.00  0.00  0.00  1.00  0.00  0.00  0.00  0.00  0.00
  WS02006253WS02006251    1.00   0.02  0.02  0.00  0.95  0.00  0.01  0.00  0.00  0.00
  WS02006252WS02006251    1.00   0.23  0.00  0.00  0.01  0.00  0.76  0.00  0.00  0.00
  WS02006251WS02006249    1.00   0.00  0.00  0.00  1.00  0.00  0.00  0.00  0.41  0.00
  WS02006249WS02006248    1.00   0.00  0.01  0.00  0.83  0.00  0.16  0.00  0.00  0.00
  WS02006248WS02006247    1.00   0.01  0.00  0.00  0.99  0.00  0.00  0.00  0.25  0.00
  WS02006247WS02006245    1.00   0.01  0.00  0.00  0.99  0.00  0.00  0.00  0.00  0.00
  WS02006245WS02006243    1.00   0.00  0.00  0.00  0.92  0.00  0.00  0.08  0.01  0.00
  WS02006243WS02006242    1.00   0.00  0.00  0.00  1.00  0.00  0.00  0.00  0.37  0.00
  WS02006242WS02006240    1.00   0.00  0.00  0.00  1.00  0.00  0.00  0.00  0.00  0.00
  WS02006240WS02006239    1.00   0.00  0.00  0.00  0.92  0.00  0.00  0.08  0.01  0.00
  WS02006239WS02006238    1.00   0.00  0.00  0.00  1.00  0.00  0.00  0.00  0.18  0.00
  WS02006238WS02006235    1.00   0.00  0.00  0.00  1.00  0.00  0.00  0.00  0.00  0.00
  WS02006235WS02006234    1.00   0.00  0.00  0.00  0.94  0.00  0.06  0.00  0.00  0.00
  WS02006234WS02006232    1.00   0.00  0.00  0.00  1.00  0.00  0.00  0.00  0.14  0.00
  WS02006232WS02006231    1.00   0.00  0.00  0.00  1.00  0.00  0.00  0.00  0.00  0.00
  WS02006231WS02006230    1.00   0.00  0.00  0.00  0.41  0.00  0.58  0.00  0.00  0.00
  WS02006230WS02006229    1.00   0.00  0.00  0.00  0.99  0.00  0.00  0.01  0.00  0.00
  WS02006228WS02006109    1.00   0.00  0.00  0.00  1.00  0.00  0.00  0.00  0.01  0.00
  WS02006116WS02004401    1.00   0.01  0.00  0.00  0.99  0.00  0.00  0.00  0.00  0.00
  WS02006115WS02006116    1.00   0.01  0.00  0.00  0.99  0.00  0.00  0.00  0.00  0.00
  WS02006113WS02006111    1.00   0.01  0.00  0.00  0.00  0.99  0.00  0.00  0.24  0.00
  WS02006112WS02006115    1.00   0.01  0.00  0.00  0.99  0.00  0.00  0.00  0.00  0.00
  WS02006111WS02006112    1.00   0.01  0.00  0.00  0.99  0.00  0.00  0.00  0.98  0.00
  WS02006110WS02006113    1.00   0.00  0.00  0.00  0.99  0.00  0.00  0.00  0.00  0.00
  WS02006109WS02006110    1.00   0.00  0.00  0.00  0.99  0.00  0.00  0.00  0.00  0.00
  WS02004411WS02004412    1.00   0.02  0.00  0.00  0.98  0.00  0.00  0.00  0.00  0.00
  WS02004401WS02004402    1.00   0.01  0.00  0.00  0.99  0.00  0.00  0.00  0.00  0.00
  WS02004413WS02003067    1.00   0.02  0.01  0.00  0.00  0.00  0.97  0.00  0.00  0.00
  WS02004412WS02004413    1.00   0.02  0.00  0.00  0.98  0.00  0.00  0.00  0.01  0.00
  WS02004410WS02004411    1.00   0.02  0.00  0.00  0.98  0.00  0.00  0.00  0.00  0.00
  WS02004409WS02004410    1.00   0.02  0.00  0.00  0.98  0.00  0.00  0.00  0.02  0.00
  WS02004407WS02004409    1.00   0.02  0.00  0.00  0.98  0.00  0.00  0.00  0.95  0.00
  WS02004406WS02004407    1.00   0.00  0.02  0.00  0.98  0.00  0.00  0.00  0.00  0.00
  WS02004405WS02004406    1.00   0.00  0.00  0.00  1.00  0.00  0.00  0.00  0.00  0.00
  WS02004404WS02004405    1.00   0.00  0.00  0.00  1.00  0.00  0.00  0.00  0.00  0.00
  WS02004403WS02004404    1.00   0.00  0.01  0.00  0.99  0.00  0.00  0.00  0.00  0.00
  WS02004402WS02004403    1.00   0.01  0.00  0.00  0.99  0.00  0.00  0.00  0.00  0.00
  WS02004139WS02001211    1.00   0.00  0.00  0.00  1.00  0.00  0.00  0.00  0.00  0.00
  WS02004138WS02004139    1.00   0.00  0.00  0.00  1.00  0.00  0.00  0.00  1.00  0.00
  WS02003067WS02003066    1.00   0.03  0.00  0.00  0.97  0.00  0.00  0.00  0.00  0.00
  WS02001213WS02003059    1.00   0.00  0.00  0.00  1.00  0.00  0.00  0.00  0.00  0.00
  WS02001212WS02001213    1.00   0.00  0.00  0.00  0.87  0.00  0.13  0.00  0.00  0.00
  WS02001211WS02001212    1.00   0.00  0.00  0.00  1.00  0.00  0.00  0.00  0.00  0.00
  WS02003072WS02003073    1.00   0.00  0.00  0.00  0.00  0.00  0.00  1.00  0.00  0.00
  WS02003069WS02003072    1.00   0.00  0.00  0.00  1.00  0.00  0.00  0.00  0.23  0.00
  WS02003060WS02003069    1.00   0.00  0.00  0.00  0.99  0.01  0.00  0.00  0.17  0.00
  WS02003059WS02003060    1.00   0.00  0.00  0.00  1.00  0.00  0.00  0.00  0.01  0.00
  HS02004901HS02004770    1.00   0.04  0.00  0.00  0.95  0.00  0.00  0.00  0.01  0.00
  HS02004876HS02004881    1.00   0.01  0.00  0.00  0.98  0.01  0.00  0.00  0.00  0.00
  HS02004870HS02004876    1.00   0.00  0.00  0.00  0.99  0.00  0.00  0.00  0.95  0.00
  HS02004842HS02004848    1.00   0.00  0.05  0.00  0.95  0.00  0.00  0.00  0.64  0.00
  HS02004837HS02004842    1.00   0.00  0.00  0.00  1.00  0.00  0.00  0.00  0.11  0.00
  HS02004830HS02004837    1.00   0.00  0.00  0.00  1.00  0.00  0.00  0.00  0.99  0.00
  HS02004824HS02004830    1.00   0.00  0.00  0.00  1.00  0.00  0.00  0.00  0.00  0.00
  HS02004817HS02004824    1.00   0.00  0.00  0.00  1.00  0.00  0.00  0.00  1.00  0.00
  HS02004770HS02004777    1.00   0.00  0.05  0.00  0.95  0.00  0.00  0.00  0.05  0.00
  HS02004799HS02004480    1.00   0.00  0.02  0.00  0.94  0.00  0.04  0.00  0.00  0.00
  HS02004792HS02004799    1.00   0.00  0.00  0.00  0.99  0.01  0.00  0.00  0.98  0.00
  HS02004788HS02004792    1.00   0.00  0.00  0.00  1.00  0.00  0.00  0.00  0.98  0.00
  HS02004785HS02004788    1.00   0.00  0.00  0.00  1.00  0.00  0.00  0.00  0.00  0.00
  HS02004777HS02004785    1.00   0.00  0.00  0.00  1.00  0.00  0.00  0.00  0.17  0.00
  HS02004480HS02004478    1.00   0.05  0.00  0.00  0.77  0.00  0.00  0.18  0.00  0.00
  HS02004479HS02004480    1.00   0.02  0.00  0.00  0.98  0.00  0.00  0.00  0.14  0.00
  HS02004862HS02004870    1.00   0.00  0.00  0.00  1.00  0.00  0.00  0.00  0.05  0.00
  HS02004848HS02004852    1.00   0.05  0.00  0.00  0.95  0.00  0.00  0.00  0.72  0.00
  HS02004856HS02004862    1.00   0.00  0.07  0.00  0.93  0.00  0.00  0.00  0.78  0.00
  HS02004852HS02004856    1.00   0.04  0.01  0.00  0.95  0.00  0.00  0.00  0.84  0.00
  HS02004802HS02004478    1.00   0.05  0.01  0.00  0.95  0.00  0.00  0.00  0.01  0.00
  HS02004478WS02006287    1.00   0.06  0.00  0.00  0.85  0.09  0.00  0.00  0.73  0.00
  HS02004817HS02004807    1.00   0.00  0.05  0.00  0.95  0.00  0.00  0.00  0.00  0.00
  HS02004807HS02004802    1.00   0.05  0.00  0.00  0.95  0.00  0.00  0.00  0.01  0.00
  YS02001759YS02001757    1.00   0.00  0.00  0.00  1.00  0.00  0.00  0.00  0.18  0.00
  YS02001762YS02001759    1.00   0.00  0.00  0.00  1.00  0.00  0.00  0.00  0.04  0.00
  YS02001765YS02001762    1.00   0.00  0.00  0.00  1.00  0.00  0.00  0.00  0.19  0.00
  YS02001770YS02001767    1.00   0.00  0.00  0.00  1.00  0.00  0.00  0.00  0.00  0.00
  YS02001774YS02001770    1.00   0.00  0.05  0.00  0.95  0.00  0.00  0.00  0.05  0.00
  YS02001779YS02001774    1.00   0.00  0.00  0.00  1.00  0.00  0.00  0.00  0.24  0.00
  YS02001649YS02001757    1.00   0.00  0.00  0.00  1.00  0.00  0.00  0.00  0.18  0.00
  YS02001767YS02001765    1.00   0.00  0.00  0.00  1.00  0.00  0.00  0.00  0.01  0.00
  YS02006561YS02001783    1.00   0.08  0.00  0.00  0.11  0.82  0.00  0.00  0.64  0.00
  YS02001783YS02001784    1.00   0.00  0.08  0.00  0.92  0.00  0.00  0.00  0.01  0.00
  YS02001784YS02001785    1.00   0.00  0.00  0.00  1.00  0.00  0.00  0.00  0.23  0.00
  YS02001788YS02001790    1.00   0.00  0.00  0.00  0.26  0.74  0.00  0.00  0.61  0.00
  YS02001790YS02001791    1.00   0.00  0.00  0.00  0.20  0.80  0.00  0.00  0.54  0.00
  YS02001791YS02001793    1.00   0.00  0.00  0.00  0.24  0.76  0.00  0.00  0.05  0.00
  YS02001910YS02001907    1.00   0.00  0.00  0.00  0.99  0.00  0.00  0.01  0.13  0.00
  YS02001786YS02001788    1.00   0.00  0.00  0.00  0.24  0.76  0.00  0.00  0.00  0.00
  YS02001915YS02001910    1.00   0.00  0.00  0.00  0.99  0.01  0.00  0.00  0.21  0.00
  YS02001918YS02001915    1.00   0.00  0.00  0.00  0.99  0.01  0.00  0.00  0.67  0.00
  YS02001923YS02001920    1.00   0.00  0.00  0.00  1.00  0.00  0.00  0.00  1.00  0.00
  YS02001926YS02001923    1.00   0.00  0.03  0.00  0.00  0.00  0.97  0.00  0.00  0.00
  YS02001929YS02001926    1.00   0.00  0.04  0.00  0.96  0.00  0.00  0.00  0.87  0.00
  YS02001920YS02001918    1.00   0.00  0.00  0.00  1.00  0.00  0.00  0.00  0.00  0.00
  YS02001629YS02163301    1.00   0.06  0.00  0.00  0.93  0.00  0.00  0.00  0.00  0.00
  YS02001619YS02001622    1.00   0.04  0.00  0.00  0.96  0.00  0.00  0.00  0.00  0.00
  YS02001622YS02001625    1.00   0.05  0.00  0.00  0.95  0.00  0.00  0.00  0.10  0.00
  YS02001625YS02001629    1.00   0.05  0.03  0.00  0.90  0.00  0.02  0.00  0.00  0.00
  YS02163301YS02001633    1.00   0.00  0.06  0.00  0.94  0.00  0.00  0.00  0.00  0.00
  YS02163601YS02164001    1.00   0.00  0.03  0.00  0.97  0.00  0.00  0.00  0.00  0.00
  YS02164001YS02001641    1.00   0.00  0.03  0.00  0.97  0.00  0.00  0.00  0.07  0.00
  YS02001641YS02001644    1.00   0.00  0.00  0.00  1.00  0.00  0.00  0.00  0.00  0.00
  YS02001647YS02001649    1.00   0.00  0.07  0.00  0.92  0.00  0.00  0.00  0.01  0.00
  YS02006553YS02006556    1.00   0.01  0.00  0.00  0.99  0.00  0.00  0.00  0.03  0.00
  YS02006556YS02006558    1.00   0.00  0.00  0.00  1.00  0.00  0.00  0.00  0.00  0.00
  YSB6556YSB1171          1.00   0.02  0.02  0.00  0.96  0.00  0.00  0.00  0.00  0.00
  YS02001907YS02006553    1.00   0.00  0.01  0.00  0.99  0.00  0.00  0.00  0.00  0.00
  YS02006558YS02006561    1.00   0.08  0.00  0.00  0.00  0.92  0.00  0.00  0.61  0.00
  YS02001633YS02163601    1.00   0.00  0.00  0.00  1.00  0.00  0.00  0.00  0.18  0.00
  YS02001644YS02001647    1.00   0.00  0.07  0.00  0.92  0.00  0.00  0.00  0.00  0.00
  YS02001745YS02001748    1.00   0.00  0.00  0.00  0.88  0.00  0.00  0.11  0.04  0.00
  YS02001748YS02001751    1.00   0.00  0.00  0.00  0.96  0.04  0.00  0.00  0.17  0.00
  YS02001751YS02001754    1.00   0.00  0.00  0.00  0.91  0.00  0.00  0.09  0.02  0.00
  YS02001754YS02001757    1.00   0.00  0.00  0.00  1.00  0.00  0.00  0.00  0.23  0.00
  YS02001882YS02001884    1.00   0.06  0.00  0.00  0.94  0.00  0.00  0.00  0.00  0.00
  YS02001884YS02001887    1.00   0.02  0.02  0.00  0.96  0.00  0.00  0.00  0.00  0.00
  YS02001890YS02001895    1.00   0.00  0.06  0.00  0.93  0.00  0.00  0.00  0.00  0.00
  YS02001895YS02001898    1.00   0.07  0.00  0.00  0.92  0.00  0.01  0.00  0.00  0.00
  YS02001898YS02001901    1.00   0.07  0.00  0.00  0.93  0.00  0.00  0.00  0.02  0.00
  YS02001901YS02001904    1.00   0.07  0.00  0.00  0.93  0.00  0.00  0.00  0.00  0.00
  YS02001904YS02001907    1.00   0.00  0.06  0.00  0.93  0.00  0.00  0.00  0.00  0.00
  YS02001887YS02001890    1.00   0.00  0.00  0.00  0.98  0.00  0.01  0.00  0.00  0.00
  YS02001652YS02001649    1.00   0.00  0.00  0.00  1.00  0.00  0.00  0.00  0.22  0.00
  YS02001655YS02001652    1.00   0.00  0.00  0.00  0.91  0.00  0.00  0.08  0.02  0.00
  YS02001658YS02001655    1.00   0.00  0.06  0.00  0.90  0.04  0.00  0.00  0.08  0.00
  YS02001661YS02001658    1.00   0.06  0.00  0.00  0.89  0.06  0.00  0.00  0.04  0.00
  YS02001664YS02001661    1.00   0.04  0.00  0.00  0.90  0.06  0.00  0.00  0.26  0.00
  YSB1154YSB6556          1.00   0.04  0.00  0.00  0.96  0.00  0.00  0.00  0.02  0.00
  YSB1174YSB1171          1.00   0.02  0.01  0.00  0.97  0.00  0.00  0.00  0.00  0.00
  YSB1171HS02004479       1.00   0.02  0.00  0.00  0.98  0.00  0.00  0.00  0.13  0.00
  HS02004881HS02006253    1.00   0.02  0.00  0.00  0.42  0.02  0.00  0.54  0.23  0.00
  YS02001793JiankangQianchi    1.00   0.00  0.00  0.00  0.69  0.31  0.00  0.00  0.54  0.00
  YS02001757CaochengTiaoxuchi    1.00   0.00  0.10  0.00  0.90  0.00  0.00  0.00  0.00  0.00
  WSF200WS02003060        1.00   0.00  0.01  0.00  0.82  0.17  0.00  0.00  0.60  0.00
  1                       1.00   0.00  0.00  0.00  0.00  1.00  0.00  0.00  0.46  0.00
  
  
  *************************
  Conduit Surcharge Summary
  *************************
  
  ----------------------------------------------------------------------------
                                                           Hours        Hours 
                         --------- Hours Full --------   Above Full   Capacity
  Conduit                Both Ends  Upstream  Dnstream   Normal Flow   Limited
  ----------------------------------------------------------------------------
  WS02006229WS02006228        1.24      1.36      1.24      2.57         1.24
  WS02006256WS02006235        5.06      5.07      6.45      3.42         0.01
  WS02006253WS02006251        0.21      0.21      0.22      0.01         0.01
  WS02006252WS02006251        0.23      0.23      0.57      0.48         0.01
  WS02006251WS02006249        0.21      0.21      0.23      0.09         0.03
  WS02006249WS02006248        0.22      0.22      0.23      1.11         0.01
  WS02006248WS02006247        0.23      0.23      0.27      0.01         0.01
  WS02006247WS02006245        0.26      0.28      0.26      1.91         0.26
  WS02006245WS02006243        0.27      0.27      0.30      0.08         0.04
  WS02006243WS02006242        0.31      0.31      0.51      0.01         0.01
  WS02006242WS02006240        0.40      0.40      0.61      0.47         0.01
  WS02006240WS02006239        0.46      0.46      0.57      0.17         0.09
  WS02006239WS02006238        0.71      0.71      0.79      0.20         0.11
  WS02006238WS02006235        0.78      0.78      0.86      0.01         0.01
  WS02006235WS02006234        0.57      0.57      0.75      4.68         0.01
  WS02006234WS02006232        0.66      0.66      0.90      0.10         0.11
  WS02006232WS02006231        0.21      0.21      0.90      0.16         0.01
  WS02006231WS02006230        0.07      0.07      0.23      5.22         0.01
  WS02006230WS02006229        1.92      2.21      1.92      5.60         1.92
  WS02006228WS02006109        1.30      1.59      1.30      3.93         1.30
  WS02006112WS02006115        0.01      0.01      0.17      0.01         0.01
  WS02006111WS02006112        0.01      0.01      2.60      0.01         0.01
  WS02006110WS02006113        0.01      0.01      1.51      0.01         0.01
  WS02006109WS02006110        0.11      0.11      1.59      0.12         0.01
  WS02004405WS02004406        0.01      0.01      0.01      0.09         0.01
  WS02004404WS02004405        0.01      0.01      0.01      5.67         0.01
  WS02003072WS02003073        0.01      0.01      0.01      4.40         0.01
  HS02004480HS02004478        0.01      0.01      0.01      0.06         0.01
  YS02001759YS02001757        5.57      5.57      5.62      0.01         0.01
  YS02001762YS02001759        5.56      5.56      5.57      0.01         0.01
  YS02001765YS02001762        5.54      5.54      5.56      0.01         0.01
  YS02001770YS02001767        5.52      5.52      5.52      0.01         0.61
  YS02001774YS02001770        5.51      5.51      5.55      0.01         0.01
  YS02001779YS02001774        5.28      5.28      5.55      0.01         0.01
  YS02001649YS02001757        5.56      5.56      5.62      0.01         0.01
  YS02001767YS02001765        5.52      5.52      5.54      0.01         0.01
  YS02006561YS02001783        0.01      0.01      0.01      0.01         0.01
  YS02001783YS02001784        0.01      0.01      0.04      0.01         0.01
  YS02001784YS02001785        0.01      0.04      0.01      1.07         0.01
  YS02001788YS02001790        0.01      0.01      0.62      0.01         0.01
  YS02001790YS02001791        0.62      0.62      0.85      0.01         0.01
  YS02001791YS02001793        0.85      0.85      1.25      0.01         0.01
  YS02001910YS02001907        0.01      0.01      0.10      0.01         0.01
  YS02001786YS02001788        0.01      0.01      0.01      0.65         0.01
  YS02001629YS02163301        5.51      5.51      5.52      0.01         0.01
  YS02001619YS02001622        4.91      4.91      4.97      0.01         0.01
  YS02001622YS02001625        4.97      4.97      5.48      0.01         0.01
  YS02001625YS02001629        4.93      4.93      5.48      0.01         0.01
  YS02163301YS02001633        5.52      5.52      5.54      0.01         0.01
  YS02163601YS02164001        5.53      5.53      5.56      0.01         0.01
  YS02164001YS02001641        5.53      5.53      5.55      0.01         0.01
  YS02001641YS02001644        5.55      5.55      5.55      0.01         0.75
  YS02001647YS02001649        5.43      5.43      5.56      0.01         0.01
  YS02006553YS02006556        0.01      0.01      0.43      0.01         0.01
  YS02006556YS02006558        0.01      0.01      0.62      0.01         0.01
  YS02001907YS02006553        1.11      1.11      1.29      0.01         0.01
  YS02006558YS02006561        0.01      0.01      0.01      0.93         0.01
  YS02001633YS02163601        5.53      5.53      5.56      0.01         0.01
  YS02001644YS02001647        5.43      5.43      5.55      0.01         0.01
  YS02001745YS02001748        0.01      0.01      4.67      0.01         0.01
  YS02001748YS02001751        4.75      4.75      4.95      0.01         0.01
  YS02001751YS02001754        4.95      4.95      5.35      0.01         0.01
  YS02001754YS02001757        5.42      5.42      5.62      0.01         0.01
  YS02001904YS02001907        0.01      0.01      0.49      0.01         0.01
  YS02001652YS02001649        5.46      5.46      5.56      0.01         0.01
  YS02001655YS02001652        5.00      5.00      5.39      0.01         0.01
  YS02001658YS02001655        4.70      4.70      5.00      0.01         0.01
  YS02001661YS02001658        0.02      0.02      4.70      0.01         0.01
  YS02001664YS02001661        0.01      0.01      0.47      0.01         0.01
  HS02004881HS02006253        0.01      0.01      0.07      0.01         0.01
  YS02001793JiankangQianchi        1.18      1.18      3.55      0.01         0.01
  YS02001757CaochengTiaoxuchi        4.72      4.72      5.62      0.01         0.01
  
  
  ***************
  Pumping Summary
  ***************
  
  ---------------------------------------------------------------------------------------------------------
                                                  Min       Avg       Max     Total     Power    % Time Off
                        Percent   Number of      Flow      Flow      Flow    Volume     Usage    Pump Curve
  Pump                 Utilized   Start-Ups       LPS       LPS       LPS  10^6 ltr     Kw-hr    Low   High
  ---------------------------------------------------------------------------------------------------------
  CC-Pump-1               42.56           2      0.00    134.69    200.00     1.440      1.03    0.0    0.0
  CC-Pump-2               12.77           3      0.00     92.10    199.73     0.360      0.39    0.0    0.0
  JK-Pump-1               51.06           5      0.00    191.03    300.00     2.552     44.13    0.0    0.0
  JK-Pump-2               34.04           4      0.00    292.24    683.00     2.906     50.73    0.0   95.2
  XR-Pump-1               93.60           3      0.00     90.74     95.00     2.394     41.42    0.0    0.0
  XR-Pump-2               82.98           3      0.00     90.13     95.00     2.024     34.57    0.0    0.0
  XR-Pump-3               76.60           4      0.00     89.14     95.00     1.853     30.66    0.0    0.0
  XR-Pump-4               76.60           4      0.00     89.14     95.00     1.853     30.66    0.0    0.0
  
  
  ***************************
  Link Pollutant Load Summary
  ***************************
  
  ------------------------------------------------------------------------------------------
                                 COD            SS            TN            TP         NH4-N
  Link                            kg            kg            kg            kg            kg
  ------------------------------------------------------------------------------------------
  WS02003066WSF200           417.544       733.481        13.985         1.360         7.740
  WS02006287WS02006284       153.616       274.225         7.147         0.787         4.171
  WS02006284WS02006280       154.038       274.907         7.186         0.792         4.196
  WS02006280WS02006229       154.021       274.873         7.186         0.792         4.196
  WS02006229WS02006228       413.437       726.654        13.471         1.293         7.414
  WS02006256WS02006235       105.388       179.475         2.838         0.242         1.500
  WS02006253WS02006251        27.549        51.381         0.684         0.055         0.350
  WS02006252WS02006251       134.224       234.294         2.987         0.223         1.487
  WS02006251WS02006249       156.261       276.093         3.557         0.270         1.783
  WS02006249WS02006248       155.470       274.693         3.540         0.269         1.774
  WS02006248WS02006247       155.760       275.222         3.544         0.269         1.776
  WS02006247WS02006245       155.850       275.385         3.545         0.269         1.776
  WS02006245WS02006243       155.303       274.488         3.523         0.267         1.764
  WS02006243WS02006242       155.901       275.590         3.535         0.268         1.770
  WS02006242WS02006240       156.300       276.353         3.541         0.268         1.772
  WS02006240WS02006239       156.892       277.480         3.551         0.269         1.777
  WS02006239WS02006238       158.326       279.899         3.592         0.273         1.799
  WS02006238WS02006235       159.062       280.969         3.619         0.275         1.814
  WS02006235WS02006234       260.747       454.029         6.355         0.509         3.260
  WS02006234WS02006232       260.697       453.923         6.357         0.509         3.261
  WS02006232WS02006231       260.401       453.422         6.342         0.508         3.253
  WS02006231WS02006230       260.393       453.454         6.341         0.507         3.252
  WS02006230WS02006229       260.870       454.326         6.362         0.510         3.264
  WS02006228WS02006109       412.864       725.725        13.423         1.287         7.385
  WS02006116WS02004401       422.416       741.885        14.109         1.371         7.805
  WS02006115WS02006116       422.909       742.710        14.133         1.373         7.819
  WS02006113WS02006111       420.066       737.195        14.141         1.377         7.834
  WS02006112WS02006115       423.562       743.818        14.168         1.377         7.840
  WS02006111WS02006112       419.667       736.520        14.118         1.374         7.820
  WS02006110WS02006113       420.353       737.680        14.160         1.379         7.846
  WS02006109WS02006110       421.115       738.950        14.211         1.385         7.877
  WS02004411WS02004412       419.496       736.837        14.063         1.369         7.785
  WS02004401WS02004402       421.764       740.780        14.076         1.367         7.785
  WS02004413WS02003067       417.829       733.970        13.990         1.361         7.743
  WS02004412WS02004413       418.790       735.625        14.038         1.366         7.771
  WS02004410WS02004411       419.920       737.561        14.077         1.370         7.793
  WS02004409WS02004410       420.346       738.289        14.094         1.372         7.803
  WS02004407WS02004409       420.505       738.553        14.097         1.372         7.804
  WS02004406WS02004407       420.310       738.204        14.085         1.370         7.797
  WS02004405WS02004406       421.201       739.713        14.130         1.375         7.823
  WS02004404WS02004405       421.456       740.159        14.118         1.373         7.814
  WS02004403WS02004404       420.688       738.962        14.026         1.361         7.756
  WS02004402WS02004403       421.266       739.945        14.054         1.365         7.773
  WS02004139WS02001211      1288.688      2076.354       117.501        14.573        73.096
  WS02004138WS02004139      1289.367      2077.478       117.547        14.578        73.123
  WS02003067WS02003066       417.614       733.604        13.988         1.361         7.742
  WS02001213WS02003059      1330.655      2143.469       121.518        15.074        75.606
  WS02001212WS02001213      1337.668      2154.723       122.198        15.159        76.031
  WS02001211WS02001212      1336.680      2153.125       122.115        15.149        75.980
  WS02003072WS02003073      1852.059      3042.873       145.628        17.703        89.681
  WS02003069WS02003072      1855.063      3047.817       145.880        17.734        89.838
  WS02003060WS02003069      1855.335      3048.311       145.874        17.733        89.832
  WS02003059WS02003060      1329.301      2141.319       121.319        15.048        75.479
  HS02004901HS02004770         4.719         8.809         0.090         0.007         0.042
  HS02004876HS02004881        17.993        34.093         0.459         0.037         0.235
  HS02004870HS02004876        13.687        25.805         0.386         0.032         0.201
  HS02004842HS02004848         2.503         4.541         0.054         0.004         0.025
  HS02004837HS02004842         7.114        11.873         0.522         0.063         0.318
  HS02004830HS02004837        53.600        88.955         4.327         0.530         2.674
  HS02004824HS02004830        54.350        90.157         4.399         0.539         2.719
  HS02004817HS02004824        64.386       109.161         4.631         0.555         2.836
  HS02004770HS02004777        18.053        34.000         0.381         0.025         0.174
  HS02004799HS02004480        67.973       122.829         2.437         0.246         1.351
  HS02004792HS02004799        62.304       111.542         2.380         0.246         1.332
  HS02004788HS02004792        38.436        68.535         1.779         0.193         1.026
  HS02004785HS02004788        19.552        36.411         0.533         0.045         0.270
  HS02004777HS02004785        19.000        35.516         0.484         0.038         0.239
  HS02004480HS02004478        84.121       153.992         2.668         0.260         1.453
  HS02004479HS02004480        20.378        37.896         0.632         0.064         0.353
  HS02004862HS02004870        10.185        18.810         0.316         0.028         0.168
  HS02004848HS02004852         3.379         6.212         0.072         0.005         0.033
  HS02004856HS02004862         6.281        11.949         0.128         0.008         0.060
  HS02004852HS02004856         3.375         6.204         0.072         0.005         0.033
  HS02004802HS02004478        69.813       120.761         4.506         0.530         2.735
  HS02004478WS02006287       153.799       274.533         7.162         0.789         4.181
  HS02004817HS02004807        63.026       106.985         4.502         0.539         2.756
  HS02004807HS02004802        70.436       121.752         4.566         0.538         2.773
  YS02001759YS02001757       193.925       337.493         4.155         0.289         2.053
  YS02001762YS02001759       101.336       177.653         2.364         0.169         1.190
  YS02001765YS02001762       100.665       176.397         2.373         0.171         1.198
  YS02001770YS02001767        98.204       172.400         2.072         0.132         1.006
  YS02001774YS02001770         5.053         8.746         0.122         0.009         0.062
  YS02001779YS02001774         3.772         6.341         0.181         0.019         0.106
  YS02001649YS02001757       212.766       361.428         4.537         0.326         2.199
  YS02001767YS02001765       100.593       176.217         2.384         0.173         1.205
  YS02006561YS02001783       395.355       682.871         9.723         0.790         5.030
  YS02001783YS02001784       395.284       682.771         9.720         0.790         5.028
  YS02001784YS02001785       402.666       694.600        10.435         0.879         5.475
  YS02001788YS02001790       403.308       695.648        10.508         0.888         5.521
  YS02001790YS02001791       404.363       697.349        10.609         0.901         5.584
  YS02001791YS02001793       404.257       697.175        10.603         0.900         5.581
  YS02001910YS02001907       132.936       225.179         4.411         0.399         2.417
  YS02001786YS02001788       402.887       694.962        10.463         0.883         5.493
  YS02001915YS02001910       132.855       225.011         4.363         0.392         2.385
  YS02001918YS02001915        66.002       106.894         2.900         0.310         1.685
  YS02001923YS02001920        46.034        74.975         0.954         0.067         0.468
  YS02001926YS02001923        45.680        74.408         0.915         0.062         0.443
  YS02001929YS02001926        45.427        73.992         0.884         0.058         0.424
  YS02001920YS02001918        65.955       106.853         2.872         0.307         1.667
  YS02001629YS02163301        51.839        87.564         1.128         0.071         0.523
  YS02001619YS02001622        54.660        91.916         1.195         0.075         0.553
  YS02001622YS02001625        53.632        90.345         1.170         0.073         0.541
  YS02001625YS02001629        52.540        88.728         1.143         0.072         0.529
  YS02163301YS02001633        52.573        88.851         1.141         0.073         0.530
  YS02163601YS02164001       144.249       242.070         3.030         0.213         1.456
  YS02164001YS02001641       143.905       241.511         3.011         0.211         1.444
  YS02001641YS02001644       144.771       242.951         3.019         0.211         1.447
  YS02001647YS02001649       181.108       305.675         3.761         0.264         1.814
  YS02006553YS02006556       285.792       491.904         7.364         0.623         3.873
  YS02006556YS02006558       285.670       491.676         7.331         0.618         3.851
  YSB6556YSB1171              11.020        20.666         0.273         0.025         0.146
  YS02001907YS02006553       285.777       491.899         7.362         0.622         3.872
  YS02006558YS02006561       395.305       682.776         9.721         0.790         5.028
  YS02001633YS02163601       144.905       243.056         3.013         0.210         1.441
  YS02001644YS02001647       184.519       311.486         3.812         0.267         1.837
  YS02001745YS02001748        80.622       138.678         2.051         0.151         1.048
  YS02001748YS02001751        81.009       139.095         2.235         0.176         1.169
  YS02001751YS02001754        80.549       138.236         2.308         0.188         1.220
  YS02001754YS02001757        81.402       139.565         2.476         0.211         1.329
  YS02001882YS02001884         1.485         2.481         0.035         0.003         0.018
  YS02001884YS02001887         4.270         7.321         0.094         0.008         0.049
  YS02001890YS02001895       154.002       268.400         2.977         0.225         1.468
  YS02001895YS02001898       153.851       268.183         2.970         0.225         1.464
  YS02001898YS02001901       153.722       267.997         2.967         0.225         1.463
  YS02001901YS02001904       153.731       268.044         2.985         0.227         1.474
  YS02001904YS02001907       154.373       269.110         3.069         0.238         1.528
  YS02001887YS02001890       154.860       269.725         3.039         0.233         1.506
  YS02001652YS02001649        52.736        90.676         1.249         0.097         0.606
  YS02001655YS02001652        53.477        91.877         1.269         0.098         0.616
  YS02001658YS02001655        52.156        89.783         1.086         0.074         0.498
  YS02001661YS02001658        59.634       102.864         1.240         0.085         0.569
  YS02001664YS02001661        70.003       119.328         1.476         0.100         0.676
  YSB1154YSB6556              10.532        19.888         0.213         0.018         0.108
  YSB1174YSB1171               7.512        14.258         0.185         0.017         0.098
  YSB1171HS02004479           20.293        37.771         0.625         0.063         0.348
  HS02004881HS02006253        20.321        38.656         0.500         0.039         0.254
  YS02001793JiankangQianchi       405.416       699.055        10.655         0.906         5.611
  YS02001757CaochengTiaoxuchi       402.282       696.555         9.003         0.666         4.478
  WSF200WS02003060           417.622       733.663        13.991         1.361         7.745
  1                         1862.570      3059.849       146.676        17.835        90.338
  CC-Pump-1                  107.415       187.576         2.379         0.177         1.183
  CC-Pump-2                   26.586        46.361         0.590         0.044         0.294
  JK-Pump-1                  103.316       175.651         2.795         0.239         1.478
  JK-Pump-2                  151.151       264.430         3.614         0.292         1.861
  XR-Pump-1                  401.022       645.546        36.790         4.567        22.900
  XR-Pump-2                  322.337       519.346        29.396         3.646        18.287
  XR-Pump-3                  284.926       459.386        25.857         3.204        16.078
  XR-Pump-4                  284.926       459.386        25.857         3.204        16.078
  

  Analysis begun on:  Sun Jul 11 11:32:42 2021
  Analysis ended on:  Sun Jul 11 11:32:45 2021
  Total elapsed time: 00:00:03