
  EPA STORM WATER MANAGEMENT MODEL - VERSION 5.1 (Build 5.3.0.dev0)
  --------------------------------------------------------------

  WARNING 04: minimum elevation drop used for Conduit WS02004404WS02004405
  WARNING 03: negative offset ignored for Link YS02001904YS02001907
  
  *********************************************************
  NOTE: The summary statistics displayed in this report are
  based on results found at every computational time step,  
  not just on results from each reporting time step.
  *********************************************************
  
  ****************
  Analysis Options
  ****************
  Flow Units ............... LPS
  Process Models:
    Rainfall/Runoff ........ YES
    RDII ................... NO
    Snowmelt ............... NO
    Groundwater ............ NO
    Flow Routing ........... YES
    Ponding Allowed ........ NO
    Water Quality .......... YES
  Infiltration Method ...... HORTON
  Flow Routing Method ...... DYNWAVE
  Surcharge Method ......... EXTRAN
  Starting Date ............ 08/28/2015 08:00:00
  Ending Date .............. 08/28/2015 15:50:00
  Antecedent Dry Days ...... 8.0
  Report Time Step ......... 00:01:00
  Wet Time Step ............ 00:01:00
  Dry Time Step ............ 00:01:00
  Routing Time Step ........ 5.00 sec
  Variable Time Step ....... YES
  Maximum Trials ........... 8
  Number of Threads ........ 4
  Head Tolerance ........... 0.001500 m
  
  
  **************************        Volume         Depth
  Runoff Quantity Continuity     hectare-m            mm
  **************************     ---------       -------
  Total Precipitation ......         3.299         7.222
  Evaporation Loss .........         0.000         0.000
  Infiltration Loss ........         0.671         1.468
  Surface Runoff ...........         2.005         4.390
  Final Storage ............         0.624         1.365
  Continuity Error (%) .....        -0.021
  
  
  **************************           COD            SS            TN            TP         NH4-N
  Runoff Quality Continuity             kg            kg            kg            kg            kg
  **************************    ----------    ----------    ----------    ----------    ----------
  Initial Buildup ..........     41378.656     70582.865      1804.177       168.684      1032.807
  Surface Buildup ..........        16.421        24.064         2.857         0.263         1.685
  Wet Deposition ...........         0.000         0.000         0.000         0.000         0.000
  Sweeping Removal .........         0.000         0.000         0.000         0.000         0.000
  Infiltration Loss ........        41.115        74.344         0.794         0.054         0.375
  BMP Removal ..............         0.000         0.000         0.000         0.000         0.000
  Surface Runoff ...........      1357.957      2382.021        26.987         1.776        12.748
  Remaining Buildup ........     39995.556     68149.778      1779.243       167.116      1021.365
  Continuity Error (%) .....         0.001         0.001         0.001         0.000         0.000
  
  
  **************************        Volume        Volume
  Flow Routing Continuity        hectare-m      10^6 ltr
  **************************     ---------     ---------
  Dry Weather Inflow .......         0.616         6.165
  Wet Weather Inflow .......         2.004        20.044
  Groundwater Inflow .......         0.000         0.000
  RDII Inflow ..............         0.000         0.000
  External Inflow ..........         0.102         1.024
  External Outflow .........         1.521        15.205
  Flooding Loss ............         0.812         8.121
  Evaporation Loss .........         0.000         0.000
  Exfiltration Loss ........         0.000         0.000
  Initial Stored Volume ....         0.076         0.761
  Final Stored Volume ......         0.576         5.757
  Continuity Error (%) .....        -3.895
  
  
  **************************           COD            SS            TN            TP         NH4-N
  Quality Routing Continuity            kg            kg            kg            kg            kg
  **************************    ----------    ----------    ----------    ----------    ----------
  Dry Weather Inflow .......      1541.201      2465.922       147.955        18.494        92.472
  Wet Weather Inflow .......      1357.598      2381.443        26.979         1.776        12.744
  Groundwater Inflow .......         0.000         0.000         0.000         0.000         0.000
  RDII Inflow ..............         0.000         0.000         0.000         0.000         0.000
  External Inflow ..........       183.418       293.469        17.608         2.201        11.005
  External Outflow .........      1894.100      3122.539       149.961        18.258        92.403
  Flooding Loss ............       526.055       907.456        11.804         0.887         5.896
  Exfiltration Loss ........         0.000         0.000         0.000         0.000         0.000
  Mass Reacted .............         0.000         0.000         0.000         0.000         0.000
  Initial Stored Mass ......         0.000         0.000         0.000         0.000         0.000
  Final Stored Mass ........       473.548       799.799        20.326         2.144        11.704
  Continuity Error (%) .....         6.116         6.050         5.428         5.261         5.351
  
  
  *************************
  Highest Continuity Errors
  *************************
  Node HS02004842 (21.49%)
  Node JK-storage (-16.09%)
  Node YS02001884 (12.49%)
  Node YS02001774 (8.59%)
  Node YSB1171 (4.57%)
  
  
  ***************************
  Time-Step Critical Elements
  ***************************
  Link WS02006252WS02006251 (44.10%)
  Link YS02006556YS02006558 (15.17%)
  Link WS02006238WS02006235 (11.95%)
  Link WS02006280WS02006229 (9.95%)
  Link YS02001793JiankangQianchi (5.02%)
  
  
  ********************************
  Highest Flow Instability Indexes
  ********************************
  Link WS02006113WS02006111 (55)
  Link YS02001629YS02163301 (25)
  Link YS02163301YS02001633 (25)
  Link YS02163601YS02164001 (24)
  Link YS02001619YS02001622 (24)
  
  
  *************************
  Routing Time Step Summary
  *************************
  Minimum Time Step           :     0.09 sec
  Average Time Step           :     1.71 sec
  Maximum Time Step           :     5.00 sec
  Percent in Steady State     :    -0.00
  Average Iterations per Step :     3.93
  Percent Not Converging      :    18.25
  
  
  ***************************
  Subcatchment Runoff Summary
  ***************************
  
  ------------------------------------------------------------------------------------------------------------------------------
                            Total      Total      Total      Total     Imperv       Perv      Total       Total     Peak  Runoff
                           Precip      Runon       Evap      Infil     Runoff     Runoff     Runoff      Runoff   Runoff   Coeff
  Subcatchment                 mm         mm         mm         mm         mm         mm         mm    10^6 ltr      LPS
  ------------------------------------------------------------------------------------------------------------------------------
  sub0                       7.22       0.00       0.00       0.46       6.67       0.04       6.71        0.01     2.09   0.930
  sub1                       7.22       0.00       0.00       0.76       6.34       0.03       6.37        0.04    12.49   0.882
  sub2                       7.22       0.00       0.00       2.65       4.47       0.03       4.50        0.04    11.31   0.622
  sub3                       7.22       0.00       0.00       2.65       4.43       0.02       4.45        0.10    23.86   0.616
  sub4                       7.22       0.00       0.00       0.78       6.19       0.02       6.21        0.13    27.21   0.860
  sub5                       7.22       0.00       0.00       0.48       6.62       0.03       6.65        0.08    22.20   0.921
  sub7                       7.22       0.00       0.00       0.61       6.51       0.04       6.55        0.02     7.44   0.907
  sub8                       7.22       0.00       0.00       0.61       6.50       0.04       6.54        0.04    13.42   0.905
  sub9                       7.22       0.00       0.00       0.62       6.50       0.03       6.53        0.03     9.99   0.905
  sub10                      7.22       0.00       0.00       0.55       6.56       0.03       6.59        0.07    21.99   0.912
  sub11                      7.22       0.00       0.00       0.54       6.58       0.03       6.61        0.08    25.08   0.915
  sub12                      7.22       0.00       0.00       0.88       6.24       0.05       6.29        0.05    20.05   0.871
  sub14                      7.22       0.00       0.00       0.62       6.50       0.03       6.53        0.06    19.58   0.904
  sub15                      7.22       0.00       0.00       2.13       5.00       0.04       5.04        0.09    26.77   0.697
  sub16                      7.22       0.00       0.00       2.32       4.80       0.06       4.86        0.05    17.94   0.673
  sub17                      7.22       0.00       0.00       2.25       4.87       0.06       4.93        0.04    14.65   0.682
  sub22                      7.22       0.00       0.00       3.06       4.08       0.04       4.12        0.26    85.53   0.570
  sub23                      7.22       0.00       0.00       2.62       4.51       0.05       4.56        0.22    72.35   0.631
  sub60                      7.22       0.00       0.00       0.86       4.83       0.00       4.83        1.46   145.14   0.669
  sub61                      7.22       0.00       0.00       1.22       5.02       0.00       5.02        1.55   180.86   0.696
  sub62                      7.22       0.00       0.00       0.57       5.42       0.00       5.43        1.67   185.18   0.752
  sub63                      7.22       0.00       0.00       2.09       4.43       0.01       4.43        1.34   168.31   0.614
  sub64                      7.22       0.00       0.00       1.08       4.62       0.00       4.63        1.41   137.93   0.641
  sub65                      7.22       0.00       0.00       0.94       4.69       0.00       4.69        1.44   140.05   0.650
  sub66                      7.22       0.00       0.00       2.09       4.00       0.00       4.00        1.23   126.15   0.554
  sub67                      7.22       0.00       0.00       0.57       5.83       0.01       5.83        1.80   236.01   0.808
  sub68                      7.22       0.00       0.00       1.01       5.31       0.01       5.31        1.63   199.57   0.736
  sub69                      7.22       0.00       0.00       1.07       5.60       0.01       5.61        1.31   196.27   0.776
  sub70                      7.22       5.72       0.00       4.34       7.23       0.06       7.28        1.67   170.40   0.563
  sub71                      7.22       0.00       0.00       0.57       5.24       0.00       5.24        1.24   129.56   0.726
  sub72                      7.22       0.00       0.00       0.50       3.94       0.00       3.95        0.80    63.85   0.546
  1                          7.22       7.09       0.00       1.33       7.68       1.52       9.21        2.16   168.17   0.643
  2                          7.22       0.00       0.00       2.93       1.68       0.57       2.24        0.90   121.02   0.311
  
  
  ****************************
  Subcatchment Washoff Summary
  ****************************
  
  ------------------------------------------------------------------------------------------
                                 COD            SS            TN            TP         NH4-N
  Subcatchment                    kg            kg            kg            kg            kg
  ------------------------------------------------------------------------------------------
  sub0                         1.221         2.326         0.020         0.002         0.010
  sub1                         4.961         9.583         0.092         0.006         0.044
  sub2                         2.842         5.285         0.062         0.004         0.028
  sub3                         6.898        12.661         0.147         0.010         0.067
  sub4                        10.901        20.944         0.220         0.013         0.105
  sub5                        11.473        21.889         0.201         0.015         0.097
  sub7                         2.613         5.148         0.049         0.003         0.023
  sub8                         3.916         7.867         0.078         0.005         0.037
  sub9                         3.332         6.603         0.064         0.004         0.031
  sub10                        9.487        18.340         0.172         0.012         0.083
  sub11                        9.379        18.384         0.174         0.012         0.084
  sub12                        7.893        15.220         0.140         0.010         0.067
  sub14                        7.093        13.925         0.133         0.009         0.064
  sub15                        8.405        15.732         0.163         0.012         0.076
  sub16                        5.361        10.044         0.102         0.008         0.047
  sub17                        4.921         9.138         0.090         0.007         0.042
  sub22                       24.872        45.570         0.476         0.035         0.221
  sub23                       15.116        28.730         0.328         0.021         0.149
  sub60                       87.372       152.289         1.816         0.106         0.868
  sub61                      110.317       191.936         2.105         0.139         1.010
  sub62                      115.904       205.255         2.341         0.142         1.120
  sub63                       82.284       141.282         1.726         0.118         0.791
  sub64                      105.607       177.210         1.991         0.141         0.945
  sub65                      108.233       182.399         2.057         0.142         0.978
  sub66                       62.775       106.433         1.363         0.086         0.631
  sub67                      174.493       307.337         3.143         0.225         1.513
  sub68                      123.440       217.406         2.429         0.158         1.155
  sub69                      114.891       205.812         2.191         0.149         1.042
  sub70                      176.583       315.367         3.634         0.244         1.684
  sub71                       76.522       136.541         1.647         0.091         0.785
  sub72                       52.985        87.215         1.024         0.067         0.491
  1                          102.737       184.914         2.177         0.147         0.995
  2                           14.605        24.416         0.455         0.027         0.191
  ------------------------------------------------------------------------------------------
  System                    1649.431      2903.199        32.812         2.169        15.474
  
  
  ******************
  Node Depth Summary
  ******************
  
  ---------------------------------------------------------------------------------
                                 Average  Maximum  Maximum  Time of Max    Reported
                                   Depth    Depth      HGL   Occurrence   Max Depth
  Node                 Type       Meters   Meters   Meters  days hr:min      Meters
  ---------------------------------------------------------------------------------
  WS02001211           JUNCTION     0.72     0.80     5.63     0  02:36        0.80
  WS02001212           JUNCTION     0.43     0.51     5.57     0  02:35        0.51
  WS02001213           JUNCTION     0.67     0.76     5.52     0  02:34        0.76
  WS02003069           JUNCTION     0.45     0.59     5.17     0  02:34        0.59
  WS02003072           JUNCTION     0.52     0.65     5.02     0  02:34        0.65
  WS02003073           JUNCTION     0.31     0.40     4.46     0  02:35        0.40
  WS02003060           JUNCTION     0.40     0.52     5.45     0  02:33        0.52
  WS02003066           JUNCTION     0.22     0.30     5.86     0  02:31        0.30
  WS02003059           JUNCTION     0.72     0.81     5.50     0  02:34        0.81
  WS02003067           JUNCTION     0.54     0.71     6.03     0  02:31        0.71
  WS02004401           JUNCTION     0.63     0.87     6.87     0  02:27        0.87
  WS02004402           JUNCTION     0.66     0.89     6.85     0  02:27        0.89
  WS02004403           JUNCTION     0.69     0.91     6.84     0  02:27        0.91
  WS02004404           JUNCTION     0.76     0.98     6.83     0  02:28        0.98
  WS02004406           JUNCTION     0.77     0.97     6.80     0  02:27        0.97
  WS02004409           JUNCTION     0.44     0.68     6.45     0  02:31        0.68
  WS02004410           JUNCTION     0.47     0.69     6.41     0  02:31        0.69
  WS02004411           JUNCTION     0.48     0.70     6.38     0  02:30        0.70
  WS02004412           JUNCTION     0.50     0.71     6.35     0  02:31        0.71
  WS02004413           JUNCTION     0.66     0.87     6.34     0  02:31        0.87
  WS02004405           JUNCTION     0.76     0.97     6.82     0  02:28        0.97
  WS02006109           JUNCTION     0.70     0.99     7.61     0  02:26        0.98
  WS02006110           JUNCTION     0.70     0.93     7.52     0  02:25        0.93
  WS02006111           JUNCTION     0.20     0.29     7.00     0  02:26        0.29
  WS02006112           JUNCTION     0.79     1.09     6.98     0  02:31        1.08
  WS02006113           JUNCTION     0.30     0.46     7.35     0  02:26        0.46
  WS02006115           JUNCTION     0.52     0.77     6.91     0  02:27        0.77
  WS02006116           JUNCTION     0.60     0.85     6.89     0  02:27        0.85
  WS02006230           JUNCTION     0.65     1.11     7.86     0  07:02        1.10
  WS02006231           JUNCTION     0.42     0.85     7.98     0  07:02        0.85
  WS02006232           JUNCTION     0.54     1.05     8.09     0  07:02        1.04
  WS02006234           JUNCTION     0.46     1.06     8.22     0  07:01        1.06
  WS02006235           JUNCTION     0.49     1.15     8.31     0  07:01        1.14
  WS02006238           JUNCTION     0.51     1.18     8.32     0  07:01        1.17
  WS02006240           JUNCTION     0.40     1.14     8.43     0  03:41        1.12
  WS02006242           JUNCTION     0.45     1.23     8.50     0  03:41        1.20
  WS02006243           JUNCTION     0.33     1.17     8.59     0  03:41        1.12
  WS02006245           JUNCTION     0.30     1.17     8.65     0  03:41        1.10
  WS02006247           JUNCTION     0.31     1.19     8.69     0  03:41        1.12
  WS02006248           JUNCTION     0.26     1.10     8.69     0  03:41        1.07
  WS02006249           JUNCTION     0.28     1.09     8.69     0  03:41        1.09
  WS02006239           JUNCTION     0.46     1.17     8.38     0  07:01        1.16
  WS02006251           JUNCTION     0.26     1.24     8.91     0  07:01        1.12
  WS02006252           JUNCTION     0.19     0.79     9.04     0  07:01        0.67
  WS02006253           JUNCTION     0.29     1.29     8.93     0  07:01        1.14
  WS02006256           JUNCTION     1.45     2.35     9.28     0  00:00        2.35
  WS02004138           JUNCTION     0.17     0.20     7.45     0  00:00        0.19
  WS02004139           JUNCTION     0.67     0.74     5.65     0  02:36        0.74
  WS02004407           JUNCTION     0.20     0.30     6.61     0  02:28        0.30
  WS02006228           JUNCTION     0.69     1.03     7.69     0  02:25        1.03
  WS02006229           JUNCTION     0.67     1.03     7.72     0  02:25        1.03
  WS02006280           JUNCTION     0.06     0.18     8.45     0  02:12        0.18
  WS02006284           JUNCTION     0.36     0.54     8.94     0  02:12        0.54
  WS02006287           JUNCTION     0.09     0.27     9.23     0  02:12        0.27
  WSF200               JUNCTION     0.19     0.31     5.54     0  02:31        0.31
  HS02004901           JUNCTION     0.12     0.28    10.10     0  02:10        0.28
  HS02004881           JUNCTION     0.01     0.03     9.06     0  02:12        0.03
  HS02004876           JUNCTION     0.04     0.11     9.14     0  02:12        0.11
  HS02004870           JUNCTION     0.01     0.06     9.34     0  02:12        0.06
  HS02004862           JUNCTION     0.02     0.07     9.45     0  02:13        0.07
  HS02004856           JUNCTION     0.07     0.12     9.55     0  02:12        0.12
  HS02004852           JUNCTION     0.01     0.04     9.55     0  02:13        0.04
  HS02004848           JUNCTION     0.01     0.04     9.64     0  02:12        0.04
  HS02004842           JUNCTION     0.33     0.37     9.64     0  02:12        0.37
  HS02004837           JUNCTION     0.03     0.06     9.64     0  02:12        0.06
  HS02004830           JUNCTION     0.04     0.08     9.54     0  02:12        0.08
  HS02004824           JUNCTION     0.02     0.05     9.46     0  02:15        0.05
  HS02004817           JUNCTION     0.43     0.58     9.43     0  02:12        0.58
  HS02004807           JUNCTION     0.12     0.25     9.42     0  02:12        0.25
  HS02004802           JUNCTION     0.15     0.29     9.42     0  02:12        0.29
  HS02004799           JUNCTION     0.11     0.33     9.54     0  02:10        0.33
  HS02004792           JUNCTION     0.03     0.13     9.66     0  02:10        0.13
  HS02004788           JUNCTION     0.02     0.10    10.00     0  02:10        0.10
  HS02004785           JUNCTION     0.04     0.17    10.07     0  02:10        0.17
  HS02004777           JUNCTION     0.14     0.30    10.09     0  02:10        0.30
  HS02004770           JUNCTION     0.11     0.27    10.10     0  02:10        0.27
  HS02004480           JUNCTION     0.07     0.26     9.50     0  02:11        0.26
  HS02004479           JUNCTION     0.11     0.30     9.50     0  02:10        0.30
  HS02004478           JUNCTION     0.06     0.17     9.40     0  02:12        0.17
  YS02001745           JUNCTION     0.64     0.87     8.39     0  03:28        0.86
  YS02001748           JUNCTION     1.02     1.31     8.39     0  03:26        1.31
  YS02001751           JUNCTION     1.19     2.20     9.08     0  02:37        1.50
  YS02001754           JUNCTION     1.43     2.12     8.73     0  02:39        1.79
  YS02001762           JUNCTION     1.62     2.01     8.41     0  03:47        1.99
  YS02001765           JUNCTION     1.58     1.96     8.41     0  03:47        1.94
  YS02001767           JUNCTION     1.54     1.92     8.41     0  03:10        1.89
  YS02001770           JUNCTION     1.54     1.94     8.43     0  02:53        1.88
  YS02001774           JUNCTION     1.61     2.01     8.43     0  02:52        1.95
  YS02001779           JUNCTION     1.36     1.68     8.37     0  02:42        1.68
  YS02001882           JUNCTION     0.35     0.64     7.35     0  02:31        0.63
  YS02001884           JUNCTION     0.44     0.73     7.35     0  02:31        0.73
  YS02001759           JUNCTION     1.66     2.05     8.41     0  03:47        2.04
  YS02001887           JUNCTION     0.52     0.81     7.35     0  02:33        0.81
  YS02001890           JUNCTION     0.55     0.84     7.35     0  02:33        0.84
  YS02001898           JUNCTION     0.32     0.59     7.33     0  02:32        0.59
  YS02001901           JUNCTION     0.43     0.72     7.33     0  02:32        0.72
  YS02001904           JUNCTION     0.41     0.70     7.33     0  02:51        0.70
  YS02001907           JUNCTION     0.74     1.05     7.34     0  02:32        1.04
  YS02001910           JUNCTION     0.53     0.82     7.33     0  02:32        0.82
  YS02001915           JUNCTION     0.34     0.61     7.33     0  02:32        0.61
  YS02001918           JUNCTION     0.12     0.26     7.32     0  02:32        0.26
  YS02001619           JUNCTION     1.16     1.61     8.54     0  02:50        1.46
  YS02001629           JUNCTION     1.49     1.85     8.40     0  03:05        1.83
  YS02001641           JUNCTION     1.59     1.95     8.39     0  02:53        1.92
  YS02001644           JUNCTION     1.60     1.92     8.35     0  03:05        1.92
  YS02001652           JUNCTION     1.45     2.12     8.71     0  02:48        1.88
  YS02001655           JUNCTION     1.22     2.20     9.05     0  02:48        1.65
  YS02001920           JUNCTION     0.21     0.33     7.33     0  02:33        0.32
  YS02001923           JUNCTION     0.08     0.12     7.38     0  03:01        0.12
  YS02001926           JUNCTION     0.17     0.23     7.67     0  03:01        0.23
  YS02001929           JUNCTION     0.08     0.12     7.81     0  03:01        0.12
  YS02001658           JUNCTION     0.96     2.30     9.44     0  02:48        1.41
  YS02001661           JUNCTION     0.74     1.50     8.90     0  03:47        1.22
  YS02001664           JUNCTION     0.32     0.57     8.49     0  03:47        0.56
  YS02001622           JUNCTION     1.18     1.62     8.52     0  02:50        1.48
  YS02001633           JUNCTION     1.58     1.95     8.41     0  03:06        1.92
  YS02001649           JUNCTION     1.63     2.05     8.44     0  03:47        2.05
  YS02001757           JUNCTION     1.75     2.15     8.41     0  03:47        2.15
  YS02001895           JUNCTION     0.31     0.59     7.34     0  02:32        0.59
  YS02001625           JUNCTION     1.45     1.78     8.38     0  02:51        1.78
  YS02163301           JUNCTION     1.52     1.89     8.41     0  03:06        1.86
  YS02163601           JUNCTION     1.63     2.00     8.40     0  02:53        1.97
  YS02164001           JUNCTION     1.57     1.96     8.41     0  02:53        1.91
  YS02001647           JUNCTION     1.43     1.79     8.40     0  03:47        1.79
  YSB1154              JUNCTION     0.25     0.44     9.50     0  02:10        0.44
  YSB6556              JUNCTION     0.14     0.33     9.50     0  02:11        0.33
  YSB1174              JUNCTION     0.20     0.39     9.50     0  02:11        0.39
  YSB1171              JUNCTION     0.40     0.60     9.50     0  02:10        0.60
  YS02006553           JUNCTION     0.74     1.05     7.34     0  02:29        1.04
  YS02006561           JUNCTION     0.17     0.40     7.06     0  02:58        0.35
  YS02006556           JUNCTION     0.71     1.02     7.33     0  02:32        1.01
  YS02006558           JUNCTION     0.76     1.07     7.33     0  02:31        1.05
  YS02001783           JUNCTION     0.33     1.42     7.56     0  02:58        0.89
  YS02001784           JUNCTION     0.36     1.33     7.39     0  02:58        0.90
  YS02001786           JUNCTION     0.31     1.41     7.44     0  02:58        0.86
  YS02001788           JUNCTION     0.25     1.34     7.32     0  02:58        0.84
  YS02001790           JUNCTION     0.32     1.96     7.60     0  02:56        1.10
  YS02001791           JUNCTION     0.26     1.51     6.98     0  02:56        1.19
  YS02001793           JUNCTION     0.31     1.89     6.72     0  02:58        1.78
  WSC                  OUTFALL      0.31     0.40     1.07     0  02:35        0.40
  JK-storage           STORAGE      1.55     5.80     6.60     0  02:57        5.80
  CC-storage           STORAGE      1.03     1.39     8.39     0  03:26        1.39
  XR-storage           STORAGE      3.02     5.34     3.34     0  03:56        5.34
  
  
  *******************
  Node Inflow Summary
  *******************
  
  -------------------------------------------------------------------------------------------------
                                  Maximum  Maximum                  Lateral       Total        Flow
                                  Lateral    Total  Time of Max      Inflow      Inflow     Balance
                                   Inflow   Inflow   Occurrence      Volume      Volume       Error
  Node                 Type           LPS      LPS  days hr:min    10^6 ltr    10^6 ltr     Percent
  -------------------------------------------------------------------------------------------------
  WS02001211           JUNCTION      7.35   389.49     0  04:02       0.207        9.15       0.081
  WS02001212           JUNCTION      0.00   391.63     0  04:01           0        9.14       0.080
  WS02001213           JUNCTION      0.00   393.78     0  04:01           0        9.13       0.126
  WS02003069           JUNCTION      0.32   956.47     0  02:33     0.00902        15.2       0.081
  WS02003072           JUNCTION      0.00   956.44     0  02:34           0        15.2       0.120
  WS02003073           JUNCTION      1.82   958.29     0  02:34      0.0514        15.2       0.120
  WS02003060           JUNCTION     16.53   956.21     0  02:33       0.466        15.2       0.080
  WS02003066           JUNCTION      0.00   555.08     0  02:31           0        5.64       0.055
  WS02003059           JUNCTION      0.00   397.32     0  04:01           0        9.12       0.204
  WS02003067           JUNCTION      0.00   555.02     0  02:31           0        5.65       0.123
  WS02004401           JUNCTION      0.00   558.81     0  02:27           0        5.82       0.263
  WS02004402           JUNCTION      0.00   557.71     0  02:27           0         5.8       0.257
  WS02004403           JUNCTION      0.00   557.59     0  02:27           0        5.79       0.242
  WS02004404           JUNCTION      0.16   557.30     0  02:28     0.00457        5.78       0.191
  WS02004406           JUNCTION      0.00   557.50     0  02:27           0        5.75       0.471
  WS02004409           JUNCTION      0.00   556.97     0  02:28           0        5.72       0.167
  WS02004410           JUNCTION      0.00   555.85     0  02:30           0        5.71       0.204
  WS02004411           JUNCTION      0.00   555.44     0  02:30           0         5.7       0.221
  WS02004412           JUNCTION      0.00   555.17     0  02:30           0        5.69       0.254
  WS02004413           JUNCTION      0.00   555.19     0  02:31           0        5.67       0.401
  WS02004405           JUNCTION      0.04   557.35     0  02:27     0.00107        5.77       0.285
  WS02006109           JUNCTION      1.23   551.03     0  02:24      0.0347        5.85       0.193
  WS02006110           JUNCTION      0.00   551.03     0  02:24           0        5.84       0.197
  WS02006111           JUNCTION      0.00   574.93     0  02:25           0        5.82       0.034
  WS02006112           JUNCTION     14.65   565.56     0  02:26      0.0423        5.86       0.412
  WS02006113           JUNCTION      0.00   551.24     0  02:25           0        5.83       0.075
  WS02006115           JUNCTION      0.00   567.80     0  02:24           0        5.84       0.214
  WS02006116           JUNCTION      0.00   560.45     0  02:26           0        5.83       0.184
  WS02006230           JUNCTION     10.28   530.44     0  07:01        0.29        4.52       0.189
  WS02006231           JUNCTION      0.00   520.28     0  07:02           0        4.23       0.010
  WS02006232           JUNCTION      0.00   520.15     0  07:01           0        4.24       0.257
  WS02006234           JUNCTION      0.00   520.82     0  07:01           0        4.24      -0.070
  WS02006235           JUNCTION      0.00   520.87     0  07:01           0        4.39       0.198
  WS02006238           JUNCTION      0.00   418.07     0  07:10           0         1.8       0.110
  WS02006240           JUNCTION      0.00   416.48     0  07:10           0        1.67       0.089
  WS02006242           JUNCTION      0.00   416.08     0  07:10           0        1.62       0.119
  WS02006243           JUNCTION      0.00   415.60     0  07:10           0        1.57       0.155
  WS02006245           JUNCTION      0.00   415.00     0  07:10           0        1.55       0.202
  WS02006247           JUNCTION      0.00   414.89     0  07:10           0        1.54       0.027
  WS02006248           JUNCTION      0.00   414.88     0  07:10           0        1.53      -0.063
  WS02006249           JUNCTION      0.00   425.09     0  07:01           0        1.56       0.119
  WS02006239           JUNCTION      0.00   417.45     0  07:10           0        1.74       0.017
  WS02006251           JUNCTION      0.08   411.41     0  07:01     0.00217         1.6      -0.023
  WS02006252           JUNCTION      0.00   400.00     0  07:00           0        1.32       0.017
  WS02006253           JUNCTION      2.09   119.30     0  03:41     0.00543       0.278       0.080
  WS02006256           JUNCTION      0.00   983.00     0  02:30           0        5.72       0.015
  WS02004138           JUNCTION      0.00   380.00     0  00:00           0        8.95       0.026
  WS02004139           JUNCTION      0.32   395.85     0  00:00     0.00905        8.96       0.173
  WS02004407           JUNCTION      0.00   557.15     0  02:28           0        5.72       0.072
  WS02006228           JUNCTION      0.00   549.95     0  02:24           0        5.83       0.164
  WS02006229           JUNCTION      0.00   549.94     0  02:25           0        5.84       0.206
  WS02006280           JUNCTION      0.00   345.36     0  02:12           0        1.33       0.005
  WS02006284           JUNCTION      0.10   345.33     0  02:12      0.0027        1.33       0.091
  WS02006287           JUNCTION      0.00   345.20     0  02:12           0        1.33       0.053
  WSF200               JUNCTION      0.00   555.11     0  02:31           0        5.64       0.047
  HS02004901           JUNCTION     17.94    17.94     0  02:07      0.0509       0.051       3.566
  HS02004881           JUNCTION      7.44    68.84     0  02:12      0.0221       0.236       0.039
  HS02004876           JUNCTION     12.49    61.93     0  02:12      0.0424       0.214       0.251
  HS02004870           JUNCTION     13.42    49.67     0  02:12      0.0418       0.172       0.061
  HS02004862           JUNCTION     11.51    36.95     0  02:12      0.0475        0.13       0.129
  HS02004856           JUNCTION      9.99    25.53     0  02:12      0.0314      0.0841       1.744
  HS02004852           JUNCTION      0.00    16.04     0  02:12           0      0.0527       0.100
  HS02004848           JUNCTION     23.86    23.86     0  02:14         0.1         0.1       0.043
  HS02004842           JUNCTION      0.00     8.51     0  02:22           0      0.0605      27.373
  HS02004837           JUNCTION     28.34    35.60     0  02:11       0.252       0.299       0.272
  HS02004830           JUNCTION      0.15    35.72     0  02:12     0.00423        0.29       0.428
  HS02004824           JUNCTION     27.26    62.76     0  02:14       0.131       0.419       0.128
  HS02004817           JUNCTION      0.60    63.36     0  02:15      0.0169       0.436       3.978
  HS02004807           JUNCTION     25.08    86.68     0  02:13      0.0768       0.496       0.860
  HS02004802           JUNCTION      0.00    87.19     0  02:14           0       0.492       0.832
  HS02004799           JUNCTION     19.58   219.89     0  02:10      0.0622       0.726       0.331
  HS02004792           JUNCTION     85.81   200.55     0  02:10       0.268       0.664       0.061
  HS02004788           JUNCTION     28.44   116.46     0  02:10       0.134       0.397       0.098
  HS02004785           JUNCTION      0.15    88.33     0  02:10     0.00423       0.265       0.181
  HS02004777           JUNCTION      0.03    88.61     0  02:08    0.000846       0.265       1.990
  HS02004770           JUNCTION     72.35    89.52     0  02:08       0.217       0.267       1.175
  HS02004480           JUNCTION      0.00   259.91     0  02:10           0       0.853       0.094
  HS02004479           JUNCTION      0.00    40.69     0  02:12           0       0.139       0.526
  HS02004478           JUNCTION      0.00   345.17     0  02:12           0        1.33       0.045
  YS02001745           JUNCTION    145.14   327.52     0  02:53        1.46        1.48       0.745
  YS02001748           JUNCTION      0.04   462.28     0  02:52     0.00127        1.47       1.458
  YS02001751           JUNCTION      0.01   372.46     0  02:38     0.00031        1.43       1.591
  YS02001754           JUNCTION      0.26   221.30     0  02:36     0.00733        1.42       1.783
  YS02001762           JUNCTION      0.00   238.59     0  02:52           0        1.42       1.512
  YS02001765           JUNCTION      0.00   229.38     0  02:52           0        1.42       1.716
  YS02001767           JUNCTION      0.54   222.00     0  02:52      0.0151        1.44       2.530
  YS02001770           JUNCTION    185.33   206.85     0  02:52        1.67        1.71       1.836
  YS02001774           JUNCTION      0.00   186.48     0  03:33           0        0.29       9.402
  YS02001779           JUNCTION      0.01   186.59     0  03:33    0.000141       0.257       6.254
  YS02001882           JUNCTION      0.00    13.79     0  02:53           0      0.0131      17.203
  YS02001884           JUNCTION      0.00    18.19     0  02:53           0      0.0433      14.274
  YS02001759           JUNCTION    180.90   422.14     0  02:52        1.55        2.91       0.783
  YS02001887           JUNCTION    236.46   250.75     0  02:31        1.81        1.84       0.422
  YS02001890           JUNCTION      0.00   247.97     0  02:31           0         1.8       0.471
  YS02001898           JUNCTION      0.00   247.74     0  02:31           0        1.79       0.149
  YS02001901           JUNCTION      0.00   253.93     0  02:35           0        1.78       0.344
  YS02001904           JUNCTION      0.00   254.16     0  02:34           0        1.78       0.318
  YS02001907           JUNCTION      0.00   452.28     0  02:33           0        3.88       0.588
  YS02001910           JUNCTION      0.00   220.10     0  02:51           0        2.11       0.516
  YS02001915           JUNCTION    129.58   202.91     0  02:55        1.24        2.12       0.247
  YS02001918           JUNCTION      0.00    72.09     0  02:54           0       0.881       0.172
  YS02001619           JUNCTION    126.15   126.15     0  02:44        1.23        1.23       0.981
  YS02001629           JUNCTION      0.00   183.05     0  02:39           0        1.15       2.526
  YS02001641           JUNCTION      0.00   335.16     0  02:51           0        2.49       0.850
  YS02001644           JUNCTION    137.97   712.30     0  03:29        1.41        5.92       0.452
  YS02001652           JUNCTION      0.00   235.69     0  02:48           0        1.29       1.897
  YS02001655           JUNCTION      0.15   341.97     0  02:39     0.00434        1.31       1.808
  YS02001920           JUNCTION      2.87    66.74     0  03:01      0.0809       0.883       0.281
  YS02001923           JUNCTION      0.04    63.87     0  03:01     0.00106       0.803       0.051
  YS02001926           JUNCTION      0.05    63.89     0  03:01     0.00147       0.804       0.348
  YS02001929           JUNCTION     63.85    63.85     0  03:01       0.803       0.803       0.050
  YS02001658           JUNCTION      0.00   577.88     0  02:48           0        1.37       1.427
  YS02001661           JUNCTION      0.00   508.35     0  03:08           0        1.55       0.448
  YS02001664           JUNCTION    168.31   375.52     0  03:09        1.34        1.51       0.359
  YS02001622           JUNCTION      0.00   161.75     0  02:40           0        1.21       2.687
  YS02001633           JUNCTION    140.25   339.72     0  02:51        1.45        2.56       1.264
  YS02001649           JUNCTION      0.00   628.33     0  02:37           0        4.46       0.821
  YS02001757           JUNCTION      0.00  1099.59     0  02:52           0        6.82       1.361
  YS02001895           JUNCTION      0.00   247.84     0  02:34           0        1.79       0.237
  YS02001625           JUNCTION      0.00   183.01     0  02:39           0        1.18       3.412
  YS02163301           JUNCTION      0.00   198.39     0  02:51           0        1.14       2.157
  YS02163601           JUNCTION      0.11   339.76     0  02:51      0.0031        2.51       1.212
  YS02164001           JUNCTION      0.00   338.45     0  02:51           0        2.49       0.812
  YS02001647           JUNCTION      0.00   480.98     0  02:51           0        3.74       0.747
  YSB1154              JUNCTION     22.20    22.20     0  02:10      0.0753      0.0765       1.924
  YSB6556              JUNCTION      0.00    22.21     0  02:11           0      0.0773       1.640
  YSB1174              JUNCTION     20.05    20.05     0  02:06       0.055      0.0557       2.360
  YSB1171              JUNCTION      0.00    40.54     0  02:11           0       0.138       4.785
  YS02006553           JUNCTION      0.00   444.06     0  02:34           0        3.87       0.386
  YS02006561           JUNCTION      0.00   684.05     0  02:33           0        5.48       0.018
  YS02006556           JUNCTION      0.00   445.16     0  02:34           0        3.87       0.275
  YS02006558           JUNCTION    200.45   674.48     0  02:33        1.66        5.51       0.076
  YS02001783           JUNCTION      0.00   649.81     0  02:33           0        5.48       0.029
  YS02001784           JUNCTION      1.06   644.77     0  02:32      0.0299        5.51       0.053
  YS02001786           JUNCTION      0.06   641.01     0  02:35     0.00159         5.5       0.048
  YS02001788           JUNCTION      0.07   640.36     0  02:35       0.002         5.5       0.031
  YS02001790           JUNCTION      0.15   649.89     0  02:56     0.00437        5.51       0.010
  YS02001791           JUNCTION      0.00   676.24     0  03:17           0        5.51       0.008
  YS02001793           JUNCTION      0.00   711.67     0  02:19           0        5.51      -0.060
  WSC                  OUTFALL       0.00   958.29     0  02:35           0        15.2       0.000
  JK-storage           STORAGE       0.00   989.54     0  02:19           0        5.66     -13.859
  CC-storage           STORAGE       0.00  1109.00     0  02:52           0         5.2       1.231
  XR-storage           STORAGE     467.01   467.01     0  02:52         8.7         9.3      -1.789
  
  
  **********************
  Node Surcharge Summary
  **********************
  
  Surcharging occurs when water rises above the top of the highest conduit.
  ---------------------------------------------------------------------
                                               Max. Height   Min. Depth
                                   Hours       Above Crown    Below Rim
  Node                 Type      Surcharged         Meters       Meters
  ---------------------------------------------------------------------
  WS02006109           JUNCTION        1.15          0.173        1.647
  WS02006110           JUNCTION        0.44          0.023        1.827
  WS02006112           JUNCTION        0.64          0.093        1.587
  WS02006230           JUNCTION        0.10          0.031        1.539
  WS02006231           JUNCTION        0.24          0.143        1.387
  WS02006232           JUNCTION        1.10          0.348        1.132
  WS02006234           JUNCTION        0.39          0.343        0.897
  WS02006235           JUNCTION        0.60          0.439        0.851
  WS02006238           JUNCTION        0.69          0.460        0.970
  WS02006240           JUNCTION        0.40          0.429        0.961
  WS02006242           JUNCTION        0.44          0.501        0.319
  WS02006243           JUNCTION        0.36          0.457        0.313
  WS02006245           JUNCTION        0.34          0.459        0.391
  WS02006247           JUNCTION        0.34          0.483        0.277
  WS02006248           JUNCTION        0.30          0.380        0.000
  WS02006249           JUNCTION        0.31          0.390        0.000
  WS02006239           JUNCTION        0.42          0.426        0.864
  WS02006251           JUNCTION        0.15          0.209        0.971
  WS02006252           JUNCTION        0.61          0.394        0.706
  WS02006253           JUNCTION        0.15          0.250        2.230
  WS02006256           JUNCTION        6.14          2.050        0.000
  WS02006228           JUNCTION        1.09          0.205        1.995
  YS02001748           JUNCTION        4.84          0.230        0.960
  YS02001751           JUNCTION        5.12          1.200        0.000
  YS02001754           JUNCTION        5.40          1.068        0.082
  YS02001762           JUNCTION        5.60          1.010        0.140
  YS02001765           JUNCTION        5.58          0.958        0.142
  YS02001767           JUNCTION        5.57          0.916        0.114
  YS02001770           JUNCTION        5.56          0.909        0.011
  YS02001774           JUNCTION        5.60          1.010        0.040
  YS02001779           JUNCTION        5.39          0.680        0.000
  YS02001759           JUNCTION        5.62          1.050        0.160
  YS02001907           JUNCTION        0.72          0.038        0.912
  YS02001619           JUNCTION        5.06          0.610        0.000
  YS02001629           JUNCTION        5.07          0.470        0.000
  YS02001641           JUNCTION        5.59          0.950        0.150
  YS02001644           JUNCTION        5.59          0.920        0.000
  YS02001652           JUNCTION        5.43          1.086        0.044
  YS02001655           JUNCTION        5.14          1.200        0.000
  YS02001658           JUNCTION        4.87          1.300        0.000
  YS02001661           JUNCTION        0.02          0.430        0.960
  YS02001622           JUNCTION        5.14          0.620        0.000
  YS02001633           JUNCTION        5.58          0.933        0.127
  YS02001649           JUNCTION        5.60          1.050        0.000
  YS02001757           JUNCTION        5.65          1.154        0.056
  YS02001625           JUNCTION        5.50          0.780        0.000
  YS02163301           JUNCTION        5.56          0.890        0.140
  YS02163601           JUNCTION        5.60          0.999        0.081
  YS02164001           JUNCTION        5.58          0.957        0.143
  YS02001647           JUNCTION        5.46          0.794        0.106
  YS02006553           JUNCTION        0.82          0.052        1.138
  YS02001783           JUNCTION        0.05          0.616        0.984
  YS02001784           JUNCTION        0.19          0.526        0.964
  YS02001786           JUNCTION        0.06          0.614        0.816
  YS02001788           JUNCTION        0.04          0.539        0.941
  YS02001790           JUNCTION        1.02          1.157        0.000
  YS02001791           JUNCTION        1.14          0.714        1.206
  YS02001793           JUNCTION        1.45          0.886        1.714
  
  
  *********************
  Node Flooding Summary
  *********************
  
  Flooding refers to all water that overflows a node, whether it ponds or not.
  --------------------------------------------------------------------------
                                                             Total   Maximum
                                 Maximum   Time of Max       Flood    Ponded
                        Hours       Rate    Occurrence      Volume     Depth
  Node                 Flooded       LPS   days hr:min    10^6 ltr    Meters
  --------------------------------------------------------------------------
  WS02006248              0.01      6.25      0  03:41       0.000     0.000
  WS02006249              0.14     87.48      0  07:01       0.029     0.000
  WS02006256              2.24    749.45      0  02:30       2.996     0.000
  YS02001751              0.01    163.48      0  02:39       0.000     0.000
  YS02001779              1.48    186.57      0  03:33       0.235     0.000
  YS02001619              0.01     11.49      0  02:53       0.000     0.000
  YS02001629              0.01      4.20      0  03:06       0.000     0.000
  YS02001644              3.73    711.96      0  03:29       4.172     0.000
  YS02001655              0.01     18.55      0  02:48       0.000     0.000
  YS02001658              0.01    128.56      0  02:52       0.000     0.000
  YS02001622              0.01     22.03      0  02:50       0.000     0.000
  YS02001649              0.01     10.79      0  03:47       0.000     0.000
  YS02001625              0.04     18.57      0  03:06       0.001     0.000
  YS02001790              0.01    152.84      0  02:56       0.000     0.000
  JK-storage              0.79    630.70      0  02:59       0.689     0.000
  
  
  **********************
  Storage Volume Summary
  **********************
  
  --------------------------------------------------------------------------------------------------
                         Average     Avg  Evap Exfil       Maximum     Max    Time of Max    Maximum
                          Volume    Pcnt  Pcnt  Pcnt        Volume    Pcnt     Occurrence    Outflow
  Storage Unit           1000 m3    Full  Loss  Loss       1000 m3    Full    days hr:min        LPS
  --------------------------------------------------------------------------------------------------
  JK-storage               0.078      27     0     0         0.291     100       0  02:57     983.00
  CC-storage               2.862      18     0     0         3.870      25       0  03:26     400.00
  XR-storage               0.362      39     0     0         0.641      69       0  03:56     380.00
  
  
  ***********************
  Outfall Loading Summary
  ***********************
  
  ---------------------------------------------------------------------------------------------------------------------------------
                         Flow       Avg       Max       Total         Total         Total         Total         Total         Total
                         Freq      Flow      Flow      Volume           COD            SS            TN            TP         NH4-N
  Outfall Node           Pcnt       LPS       LPS    10^6 ltr            kg            kg            kg            kg            kg
  ---------------------------------------------------------------------------------------------------------------------------------
  WSC                   99.98    628.62    958.29      15.205      1894.182      3122.668       149.970        18.259        92.408
  ---------------------------------------------------------------------------------------------------------------------------------
  System                99.98    628.62    958.29      15.205      1894.182      3122.668       149.970        18.259        92.408
  
  
  ********************
  Link Flow Summary
  ********************
  
  -----------------------------------------------------------------------------
                                 Maximum  Time of Max   Maximum    Max/    Max/
                                  |Flow|   Occurrence   |Veloc|    Full    Full
  Link                 Type          LPS  days hr:min     m/sec    Flow   Depth
  -----------------------------------------------------------------------------
  WS02003066WSF200     CONDUIT    555.11     0  02:31      2.78    0.09    0.23
  WS02006287WS02006284 CONDUIT    345.24     0  02:12      1.93    0.16    0.28
  WS02006284WS02006280 CONDUIT    345.36     0  02:12      2.16    0.14    0.26
  WS02006280WS02006229 CONDUIT    345.36     0  02:12      3.49    0.07    0.18
  WS02006229WS02006228 CONDUIT    549.95     0  02:24      1.09    1.82    1.00
  WS02006256WS02006235 CONDUIT    288.92     0  00:00      4.23    3.06    1.00
  WS02006253WS02006251 CONDUIT    113.87     0  03:41      0.59    0.34    1.00
  WS02006252WS02006251 CONDUIT    403.56     0  07:01      3.21    1.48    1.00
  WS02006251WS02006249 CONDUIT    425.09     0  07:01      1.10    1.23    1.00
  WS02006249WS02006248 CONDUIT    414.88     0  07:10      1.10    2.27    1.00
  WS02006248WS02006247 CONDUIT    414.89     0  07:10      1.08    0.90    1.00
  WS02006247WS02006245 CONDUIT    415.00     0  07:10      1.08    3.29    1.00
  WS02006245WS02006243 CONDUIT    415.60     0  07:10      1.08    1.23    1.00
  WS02006243WS02006242 CONDUIT    416.08     0  07:10      1.08    0.89    1.00
  WS02006242WS02006240 CONDUIT    416.48     0  07:10      1.08    1.65    1.00
  WS02006240WS02006239 CONDUIT    417.45     0  07:10      1.08    1.31    1.00
  WS02006239WS02006238 CONDUIT    418.07     0  07:10      1.09    1.34    1.00
  WS02006238WS02006235 CONDUIT    423.02     0  07:09      1.45    0.94    1.00
  WS02006235WS02006234 CONDUIT    520.82     0  07:01      1.35    5.49    1.00
  WS02006234WS02006232 CONDUIT    520.15     0  07:01      1.39    1.05    1.00
  WS02006232WS02006231 CONDUIT    520.28     0  07:02      1.35    1.09    1.00
  WS02006231WS02006230 CONDUIT    520.16     0  07:01      1.35    7.89    1.00
  WS02006230WS02006229 CONDUIT    529.03     0  07:02      1.37   11.77    1.00
  WS02006228WS02006109 CONDUIT    549.80     0  02:24      1.09    2.40    1.00
  WS02006116WS02004401 CONDUIT    558.81     0  02:27      1.00    0.77    0.86
  WS02006115WS02006116 CONDUIT    560.45     0  02:26      1.02    0.72    0.78
  WS02006113WS02006111 CONDUIT    574.93     0  02:25      2.48    0.69    0.47
  WS02006112WS02006115 CONDUIT    567.80     0  02:24      0.78    0.34    0.88
  WS02006111WS02006112 CONDUIT    557.06     0  02:26      1.60    0.26    0.68
  WS02006110WS02006113 CONDUIT    551.24     0  02:25      1.30    0.50    0.79
  WS02006109WS02006110 CONDUIT    551.03     0  02:24      1.10    1.06    1.00
  WS02004411WS02004412 CONDUIT    555.17     0  02:30      0.94    0.79    0.70
  WS02004401WS02004402 CONDUIT    557.71     0  02:27      1.00    0.67    0.88
  WS02004413WS02003067 CONDUIT    555.02     0  02:31      1.13    0.24    0.60
  WS02004412WS02004413 CONDUIT    555.19     0  02:31      0.84    0.37    0.79
  WS02004410WS02004411 CONDUIT    555.44     0  02:30      0.95    0.76    0.70
  WS02004409WS02004410 CONDUIT    555.85     0  02:30      0.97    0.72    0.69
  WS02004407WS02004409 CONDUIT    556.97     0  02:28      1.47    0.20    0.49
  WS02004406WS02004407 CONDUIT    557.15     0  02:28      1.06    0.25    0.63
  WS02004405WS02004406 CONDUIT    557.50     0  02:27      1.10    1.10    0.97
  WS02004404WS02004405 CONDUIT    557.32     0  02:27      1.15    5.46    0.97
  WS02004403WS02004404 CONDUIT    557.14     0  02:28      0.98    0.40    0.94
  WS02004402WS02004403 CONDUIT    557.59     0  02:27      1.02    0.80    0.90
  WS02004139WS02001211 CONDUIT    382.14     0  04:02      0.90    0.48    0.60
  WS02004138WS02004139 CONDUIT    395.52     0  00:00      3.64    0.08    0.44
  WS02003067WS02003066 CONDUIT    555.08     0  02:31      1.23    0.18    0.42
  WS02001213WS02003059 CONDUIT    397.32     0  04:01      0.89    0.66    0.78
  WS02001212WS02001213 CONDUIT    393.78     0  04:01      1.32    0.61    0.48
  WS02001211WS02001212 CONDUIT    391.63     0  04:01      0.78    0.30    0.65
  WS02003072WS02003073 CONDUIT    956.47     0  02:34      1.74    2.07    0.49
  WS02003069WS02003072 CONDUIT    956.44     0  02:34      1.63    0.46    0.51
  WS02003060WS02003069 CONDUIT    956.15     0  02:33      1.87    0.37    0.46
  WS02003059WS02003060 CONDUIT    402.22     0  04:00      0.95    0.26    0.67
  HS02004901HS02004770 CONDUIT     17.28     0  02:09      0.06    0.07    0.39
  HS02004876HS02004881 CONDUIT     61.92     0  02:12      0.86    0.66    0.10
  HS02004870HS02004876 CONDUIT     49.64     0  02:12      0.59    0.03    0.12
  HS02004842HS02004848 CONDUIT      8.51     0  02:22      0.04    0.00    0.29
  HS02004837HS02004842 CONDUIT      8.83     0  02:23      0.42    0.01    0.31
  HS02004830HS02004837 CONDUIT     35.57     0  02:12      0.52    0.04    0.10
  HS02004824HS02004830 CONDUIT     35.71     0  02:13      0.56    0.05    0.09
  HS02004817HS02004824 CONDUIT     62.76     0  02:15      0.20    0.03    0.45
  HS02004770HS02004777 CONDUIT     88.58     0  02:08      0.32    0.16    0.40
  HS02004799HS02004480 CONDUIT    219.65     0  02:10      0.77    0.28    0.41
  HS02004792HS02004799 CONDUIT    200.46     0  02:10      0.87    0.12    0.33
  HS02004788HS02004792 CONDUIT    116.39     0  02:10      1.00    0.08    0.17
  HS02004785HS02004788 CONDUIT     88.26     0  02:10      0.66    0.67    0.19
  HS02004777HS02004785 CONDUIT     88.18     0  02:10      0.38    0.11    0.33
  HS02004480HS02004478 CONDUIT    259.92     0  02:11      1.19    1.09    0.31
  HS02004479HS02004480 CONDUIT     40.98     0  02:12      0.18    0.04    0.40
  HS02004862HS02004870 CONDUIT     36.91     0  02:13      0.59    0.04    0.09
  HS02004848HS02004852 CONDUIT     16.04     0  02:12      0.40    0.02    0.06
  HS02004856HS02004862 CONDUIT     25.48     0  02:12      0.44    0.03    0.08
  HS02004852HS02004856 CONDUIT     16.00     0  02:13      0.20    0.02    0.11
  HS02004802HS02004478 CONDUIT     87.84     0  02:15      0.39    0.08    0.33
  HS02004478WS02006287 CONDUIT    345.20     0  02:12      1.63    0.10    0.24
  HS02004817HS02004807 CONDUIT     64.24     0  02:16      0.16    0.04    0.59
  HS02004807HS02004802 CONDUIT     87.19     0  02:14      0.33    0.17    0.38
  YS02001759YS02001757 CONDUIT    429.14     0  02:52      0.55    0.30    1.00
  YS02001762YS02001759 CONDUIT    247.56     0  02:52      0.32    0.29    1.00
  YS02001765YS02001762 CONDUIT    238.59     0  02:52      0.30    0.22    1.00
  YS02001770YS02001767 CONDUIT    221.46     0  02:52      0.30    0.88    1.00
  YS02001774YS02001770 CONDUIT    186.48     0  03:33      0.24    0.12    1.00
  YS02001779YS02001774 CONDUIT    186.58     0  03:33      0.24    0.09    1.00
  YS02001649YS02001757 CONDUIT    640.03     0  02:48      0.81    0.39    1.00
  YS02001767YS02001765 CONDUIT    229.38     0  02:52      0.29    0.29    1.00
  YS02006561YS02001783 CONDUIT    649.81     0  02:33      2.12    0.34    0.75
  YS02001783YS02001784 CONDUIT    643.71     0  02:32      1.58    0.89    1.00
  YS02001784YS02001785 CONDUIT    640.96     0  02:35      1.68    1.49    1.00
  YS02001788YS02001790 CONDUIT    649.73     0  02:56      2.22    0.48    1.00
  YS02001790YS02001791 CONDUIT    676.24     0  03:17      2.64    0.74    1.00
  YS02001791YS02001793 CONDUIT    699.94     0  03:17      5.46    0.30    1.00
  YS02001910YS02001907 CONDUIT    213.91     0  02:55      0.49    0.12    0.91
  YS02001786YS02001788 CONDUIT    640.29     0  02:35      2.13    1.23    1.00
  YS02001915YS02001910 CONDUIT    220.10     0  02:51      0.46    0.11    0.71
  YS02001918YS02001915 CONDUIT     76.97     0  03:03      0.44    0.04    0.43
  YS02001923YS02001920 CONDUIT     63.87     0  03:01      0.57    0.03    0.22
  YS02001926YS02001923 CONDUIT     63.83     0  03:01      0.65    0.09    0.18
  YS02001929YS02001926 CONDUIT     63.83     0  03:01      0.70    0.03    0.17
  YS02001920YS02001918 CONDUIT     72.09     0  02:54      0.57    0.07    0.29
  YS02001629YS02163301 CONDUIT    198.39     0  02:51      0.25    0.24    1.00
  YS02001619YS02001622 CONDUIT    161.75     0  02:40      0.73    0.24    1.00
  YS02001622YS02001625 CONDUIT    183.01     0  02:39      0.31    0.10    1.00
  YS02001625YS02001629 CONDUIT    183.05     0  02:39      0.28    0.09    1.00
  YS02163301YS02001633 CONDUIT    199.58     0  02:51      0.25    0.19    1.00
  YS02163601YS02164001 CONDUIT    338.45     0  02:51      0.43    0.30    1.00
  YS02164001YS02001641 CONDUIT    335.16     0  02:51      0.43    0.46    1.00
  YS02001641YS02001644 CONDUIT    340.06     0  02:51      0.43    1.10    1.00
  YS02001647YS02001649 CONDUIT    484.44     0  02:51      0.62    0.26    1.00
  YS02006553YS02006556 CONDUIT    445.16     0  02:34      0.57    0.38    0.99
  YS02006556YS02006558 CONDUIT    474.09     0  02:33      0.60    0.37    1.00
  YSB6556YSB1171       CONDUIT     22.45     0  02:13      0.08    0.02    0.66
  YS02001907YS02006553 CONDUIT    444.06     0  02:34      0.49    0.52    1.00
  YS02006558YS02006561 CONDUIT    684.05     0  02:33      3.12    1.51    0.77
  YS02001633YS02163601 CONDUIT    339.65     0  02:51      0.43    0.36    1.00
  YS02001644YS02001647 CONDUIT    480.98     0  02:51      0.61    0.28    1.00
  YS02001745YS02001748 CONDUIT    462.23     0  02:52      1.60    0.18    0.93
  YS02001748YS02001751 CONDUIT    372.45     0  02:38      1.20    0.19    1.00
  YS02001751YS02001754 CONDUIT    221.04     0  02:36      0.90    0.11    1.00
  YS02001754YS02001757 CONDUIT    224.51     0  02:36      0.33    0.09    1.00
  YS02001882YS02001884 CONDUIT     13.79     0  02:53      0.08    0.02    0.65
  YS02001884YS02001887 CONDUIT     19.75     0  02:56      0.05    0.03    0.75
  YS02001890YS02001895 CONDUIT    247.84     0  02:34      0.42    0.12    0.72
  YS02001895YS02001898 CONDUIT    247.74     0  02:31      0.54    0.43    0.58
  YS02001898YS02001901 CONDUIT    253.93     0  02:35      0.47    0.16    0.66
  YS02001901YS02001904 CONDUIT    254.16     0  02:34      0.44    0.39    0.71
  YS02001904YS02001907 CONDUIT    256.32     0  02:33      0.36    0.09    0.85
  YS02001887YS02001890 CONDUIT    247.97     0  02:31      0.37    0.42    0.80
  YS02001652YS02001649 CONDUIT    239.77     0  02:48      0.40    0.12    1.00
  YS02001655YS02001652 CONDUIT    235.69     0  02:48      0.94    0.11    1.00
  YS02001658YS02001655 CONDUIT    341.81     0  02:39      1.38    0.14    1.00
  YS02001661YS02001658 CONDUIT    577.88     0  02:48      1.69    0.23    1.00
  YS02001664YS02001661 CONDUIT    508.35     0  03:08      1.49    0.16    0.71
  YSB1154YSB6556       CONDUIT     22.21     0  02:11      0.19    0.04    0.56
  YSB1174YSB1171       CONDUIT     19.19     0  02:08      0.07    0.03    0.67
  YSB1171HS02004479    CONDUIT     40.69     0  02:12      0.54    0.03    0.53
  HS02004881HS02006253 CONDUIT     68.83     0  02:12      2.07    0.01    0.50
  YS02001793JiankangQianchi CONDUIT    989.54     0  02:19     16.83    0.08    1.00
  YS02001757CaochengTiaoxuchi CONDUIT   1109.00     0  02:52      2.30    0.49    1.00
  WSF200WS02003060     CONDUIT    555.24     0  02:32      1.72    0.12    0.35
  1                    CONDUIT    958.29     0  02:35      3.29    0.33    0.40
  CC-Pump-1            PUMP       200.00     0  06:50              1.00
  CC-Pump-2            PUMP       200.00     0  07:00              1.00
  JK-Pump-1            PUMP       300.00     0  00:00              1.00
  JK-Pump-2            PUMP       683.00     0  02:30              1.00
  XR-Pump-1            PUMP        95.00     0  00:00              1.00
  XR-Pump-2            PUMP        95.00     0  00:00              1.00
  XR-Pump-3            PUMP        95.00     0  00:00              1.00
  XR-Pump-4            PUMP        95.00     0  00:00              1.00
  
  
  ***************************
  Flow Classification Summary
  ***************************
  
  -------------------------------------------------------------------------------------
                      Adjusted    ---------- Fraction of Time in Flow Class ---------- 
                       /Actual         Up    Down  Sub   Sup   Up    Down  Norm  Inlet 
  Conduit               Length    Dry  Dry   Dry   Crit  Crit  Crit  Crit  Ltd   Ctrl  
  -------------------------------------------------------------------------------------
  WS02003066WSF200        1.00   0.01  0.03  0.00  0.00  0.96  0.00  0.00  0.80  0.00
  WS02006287WS02006284    1.00   0.04  0.03  0.00  0.60  0.33  0.00  0.00  0.75  0.00
  WS02006284WS02006280    1.00   0.06  0.00  0.00  0.00  0.00  0.00  0.94  0.00  0.00
  WS02006280WS02006229    1.00   0.06  0.00  0.00  0.00  0.00  0.00  0.94  0.00  0.00
  WS02006229WS02006228    1.00   0.00  0.00  0.00  0.99  0.00  0.00  0.01  0.00  0.00
  WS02006256WS02006235    1.00   0.00  0.00  0.00  1.00  0.00  0.00  0.00  0.00  0.00
  WS02006253WS02006251    1.00   0.03  0.02  0.00  0.94  0.00  0.01  0.00  0.00  0.00
  WS02006252WS02006251    1.00   0.34  0.00  0.00  0.01  0.00  0.65  0.00  0.00  0.00
  WS02006251WS02006249    1.00   0.00  0.00  0.00  1.00  0.00  0.00  0.00  0.59  0.00
  WS02006249WS02006248    1.00   0.00  0.01  0.00  0.73  0.00  0.26  0.00  0.00  0.00
  WS02006248WS02006247    1.00   0.01  0.00  0.00  0.99  0.00  0.00  0.00  0.39  0.00
  WS02006247WS02006245    1.00   0.01  0.00  0.00  0.99  0.00  0.00  0.00  0.00  0.00
  WS02006245WS02006243    1.00   0.00  0.00  0.00  0.91  0.00  0.00  0.08  0.01  0.00
  WS02006243WS02006242    1.00   0.00  0.00  0.00  1.00  0.00  0.00  0.00  0.46  0.00
  WS02006242WS02006240    1.00   0.00  0.00  0.00  1.00  0.00  0.00  0.00  0.00  0.00
  WS02006240WS02006239    1.00   0.00  0.00  0.00  0.87  0.00  0.00  0.13  0.01  0.00
  WS02006239WS02006238    1.00   0.00  0.00  0.00  1.00  0.00  0.00  0.00  0.23  0.00
  WS02006238WS02006235    1.00   0.00  0.00  0.00  1.00  0.00  0.00  0.00  0.00  0.00
  WS02006235WS02006234    1.00   0.00  0.00  0.00  0.91  0.00  0.09  0.00  0.00  0.00
  WS02006234WS02006232    1.00   0.00  0.00  0.00  1.00  0.00  0.00  0.00  0.14  0.00
  WS02006232WS02006231    1.00   0.00  0.00  0.00  0.99  0.00  0.00  0.00  0.00  0.00
  WS02006231WS02006230    1.00   0.00  0.00  0.00  0.50  0.00  0.50  0.00  0.00  0.00
  WS02006230WS02006229    1.00   0.00  0.00  0.00  0.99  0.00  0.00  0.01  0.00  0.00
  WS02006228WS02006109    1.00   0.00  0.00  0.00  1.00  0.00  0.00  0.00  0.01  0.00
  WS02006116WS02004401    1.00   0.01  0.00  0.00  0.99  0.00  0.00  0.00  0.00  0.00
  WS02006115WS02006116    1.00   0.01  0.00  0.00  0.98  0.00  0.00  0.00  0.00  0.00
  WS02006113WS02006111    1.00   0.01  0.00  0.00  0.00  0.99  0.00  0.00  0.21  0.00
  WS02006112WS02006115    1.00   0.01  0.00  0.00  0.99  0.00  0.00  0.00  0.00  0.00
  WS02006111WS02006112    1.00   0.01  0.00  0.00  0.99  0.00  0.00  0.00  0.98  0.00
  WS02006110WS02006113    1.00   0.01  0.00  0.00  0.99  0.00  0.00  0.00  0.00  0.00
  WS02006109WS02006110    1.00   0.00  0.01  0.00  0.99  0.00  0.00  0.00  0.00  0.00
  WS02004411WS02004412    1.00   0.02  0.00  0.00  0.98  0.00  0.00  0.00  0.00  0.00
  WS02004401WS02004402    1.00   0.01  0.00  0.00  0.99  0.00  0.00  0.00  0.00  0.00
  WS02004413WS02003067    1.00   0.03  0.01  0.00  0.00  0.00  0.96  0.00  0.00  0.00
  WS02004412WS02004413    1.00   0.03  0.00  0.00  0.97  0.00  0.00  0.00  0.01  0.00
  WS02004410WS02004411    1.00   0.02  0.00  0.00  0.98  0.00  0.00  0.00  0.00  0.00
  WS02004409WS02004410    1.00   0.02  0.00  0.00  0.98  0.00  0.00  0.00  0.02  0.00
  WS02004407WS02004409    1.00   0.02  0.00  0.00  0.97  0.00  0.00  0.00  0.95  0.00
  WS02004406WS02004407    1.00   0.00  0.02  0.00  0.98  0.00  0.00  0.00  0.00  0.00
  WS02004405WS02004406    1.00   0.00  0.00  0.00  1.00  0.00  0.00  0.00  0.00  0.00
  WS02004404WS02004405    1.00   0.00  0.00  0.00  1.00  0.00  0.00  0.00  0.00  0.00
  WS02004403WS02004404    1.00   0.00  0.01  0.00  0.98  0.00  0.00  0.00  0.00  0.00
  WS02004402WS02004403    1.00   0.01  0.00  0.00  0.99  0.00  0.00  0.00  0.00  0.00
  WS02004139WS02001211    1.00   0.00  0.00  0.00  1.00  0.00  0.00  0.00  0.00  0.00
  WS02004138WS02004139    1.00   0.00  0.00  0.00  0.99  0.00  0.00  0.00  1.00  0.00
  WS02003067WS02003066    1.00   0.04  0.00  0.00  0.96  0.00  0.00  0.00  0.00  0.00
  WS02001213WS02003059    1.00   0.00  0.00  0.00  1.00  0.00  0.00  0.00  0.00  0.00
  WS02001212WS02001213    1.00   0.00  0.00  0.00  0.87  0.00  0.13  0.00  0.00  0.00
  WS02001211WS02001212    1.00   0.00  0.00  0.00  1.00  0.00  0.00  0.00  0.00  0.00
  WS02003072WS02003073    1.00   0.00  0.00  0.00  0.00  0.00  0.00  1.00  0.00  0.00
  WS02003069WS02003072    1.00   0.00  0.00  0.00  1.00  0.00  0.00  0.00  0.21  0.00
  WS02003060WS02003069    1.00   0.00  0.00  0.00  0.98  0.02  0.00  0.00  0.18  0.00
  WS02003059WS02003060    1.00   0.00  0.00  0.00  1.00  0.00  0.00  0.00  0.01  0.00
  HS02004901HS02004770    1.00   0.05  0.00  0.00  0.95  0.00  0.00  0.00  0.01  0.00
  HS02004876HS02004881    1.00   0.01  0.00  0.00  0.96  0.03  0.00  0.00  0.00  0.00
  HS02004870HS02004876    1.00   0.00  0.00  0.00  0.99  0.00  0.00  0.00  0.95  0.00
  HS02004842HS02004848    1.00   0.00  0.06  0.00  0.94  0.00  0.00  0.00  0.63  0.00
  HS02004837HS02004842    1.00   0.00  0.00  0.00  1.00  0.00  0.00  0.00  0.11  0.00
  HS02004830HS02004837    1.00   0.00  0.00  0.00  1.00  0.00  0.00  0.00  0.99  0.00
  HS02004824HS02004830    1.00   0.00  0.00  0.00  1.00  0.00  0.00  0.00  0.00  0.00
  HS02004817HS02004824    1.00   0.00  0.00  0.00  1.00  0.00  0.00  0.00  1.00  0.00
  HS02004770HS02004777    1.00   0.00  0.05  0.00  0.95  0.00  0.00  0.00  0.05  0.00
  HS02004799HS02004480    1.00   0.00  0.02  0.00  0.93  0.00  0.05  0.00  0.00  0.00
  HS02004792HS02004799    1.00   0.00  0.00  0.00  0.99  0.01  0.00  0.00  0.98  0.00
  HS02004788HS02004792    1.00   0.00  0.00  0.00  0.99  0.01  0.00  0.00  0.98  0.00
  HS02004785HS02004788    1.00   0.00  0.00  0.00  1.00  0.00  0.00  0.00  0.00  0.00
  HS02004777HS02004785    1.00   0.00  0.00  0.00  1.00  0.00  0.00  0.00  0.17  0.00
  HS02004480HS02004478    1.00   0.06  0.00  0.00  0.68  0.00  0.00  0.26  0.00  0.00
  HS02004479HS02004480    1.00   0.02  0.00  0.00  0.98  0.00  0.00  0.00  0.14  0.00
  HS02004862HS02004870    1.00   0.00  0.00  0.00  1.00  0.00  0.00  0.00  0.05  0.00
  HS02004848HS02004852    1.00   0.06  0.00  0.00  0.94  0.00  0.00  0.00  0.72  0.00
  HS02004856HS02004862    1.00   0.00  0.09  0.00  0.91  0.00  0.00  0.00  0.78  0.00
  HS02004852HS02004856    1.00   0.05  0.01  0.00  0.94  0.00  0.00  0.00  0.84  0.00
  HS02004802HS02004478    1.00   0.06  0.01  0.00  0.94  0.00  0.00  0.00  0.02  0.00
  HS02004478WS02006287    1.00   0.07  0.00  0.00  0.78  0.15  0.00  0.00  0.72  0.00
  HS02004817HS02004807    1.00   0.00  0.06  0.00  0.94  0.00  0.00  0.00  0.00  0.00
  HS02004807HS02004802    1.00   0.06  0.00  0.00  0.94  0.00  0.00  0.00  0.01  0.00
  YS02001759YS02001757    1.00   0.00  0.00  0.00  1.00  0.00  0.00  0.00  0.18  0.00
  YS02001762YS02001759    1.00   0.00  0.00  0.00  1.00  0.00  0.00  0.00  0.04  0.00
  YS02001765YS02001762    1.00   0.00  0.00  0.00  1.00  0.00  0.00  0.00  0.19  0.00
  YS02001770YS02001767    1.00   0.00  0.00  0.00  1.00  0.00  0.00  0.00  0.00  0.00
  YS02001774YS02001770    1.00   0.00  0.06  0.00  0.94  0.00  0.00  0.00  0.05  0.00
  YS02001779YS02001774    1.00   0.00  0.00  0.00  1.00  0.00  0.00  0.00  0.23  0.00
  YS02001649YS02001757    1.00   0.00  0.00  0.00  1.00  0.00  0.00  0.00  0.18  0.00
  YS02001767YS02001765    1.00   0.00  0.00  0.00  1.00  0.00  0.00  0.00  0.01  0.00
  YS02006561YS02001783    1.00   0.09  0.00  0.00  0.09  0.81  0.00  0.00  0.59  0.00
  YS02001783YS02001784    1.00   0.00  0.09  0.00  0.91  0.00  0.00  0.00  0.01  0.00
  YS02001784YS02001785    1.00   0.00  0.00  0.00  1.00  0.00  0.00  0.00  0.22  0.00
  YS02001788YS02001790    1.00   0.00  0.00  0.00  0.21  0.79  0.00  0.00  0.56  0.00
  YS02001790YS02001791    1.00   0.00  0.00  0.00  0.13  0.87  0.00  0.00  0.54  0.00
  YS02001791YS02001793    1.00   0.00  0.00  0.00  0.16  0.84  0.00  0.00  0.04  0.00
  YS02001910YS02001907    1.00   0.00  0.00  0.00  0.98  0.00  0.00  0.01  0.13  0.00
  YS02001786YS02001788    1.00   0.00  0.00  0.00  0.20  0.80  0.00  0.00  0.00  0.00
  YS02001915YS02001910    1.00   0.00  0.00  0.00  0.99  0.01  0.00  0.00  0.21  0.00
  YS02001918YS02001915    1.00   0.00  0.00  0.00  0.99  0.01  0.00  0.00  0.65  0.00
  YS02001923YS02001920    1.00   0.00  0.00  0.00  1.00  0.00  0.00  0.00  1.00  0.00
  YS02001926YS02001923    1.00   0.00  0.03  0.00  0.00  0.00  0.97  0.00  0.00  0.00
  YS02001929YS02001926    1.00   0.00  0.05  0.00  0.95  0.00  0.00  0.00  0.87  0.00
  YS02001920YS02001918    1.00   0.00  0.00  0.00  1.00  0.00  0.00  0.00  0.00  0.00
  YS02001629YS02163301    1.00   0.08  0.01  0.00  0.92  0.00  0.00  0.00  0.00  0.00
  YS02001619YS02001622    1.00   0.05  0.00  0.00  0.95  0.00  0.00  0.00  0.00  0.00
  YS02001622YS02001625    1.00   0.06  0.00  0.00  0.94  0.00  0.00  0.00  0.10  0.00
  YS02001625YS02001629    1.00   0.06  0.04  0.00  0.88  0.00  0.02  0.00  0.00  0.00
  YS02163301YS02001633    1.00   0.00  0.08  0.00  0.92  0.00  0.00  0.00  0.00  0.00
  YS02163601YS02164001    1.00   0.00  0.04  0.00  0.96  0.00  0.00  0.00  0.00  0.00
  YS02164001YS02001641    1.00   0.00  0.03  0.00  0.96  0.00  0.00  0.00  0.07  0.00
  YS02001641YS02001644    1.00   0.00  0.00  0.00  1.00  0.00  0.00  0.00  0.00  0.00
  YS02001647YS02001649    1.00   0.00  0.09  0.00  0.91  0.00  0.00  0.00  0.01  0.00
  YS02006553YS02006556    1.00   0.01  0.00  0.00  0.99  0.00  0.00  0.00  0.03  0.00
  YS02006556YS02006558    1.00   0.00  0.00  0.00  1.00  0.00  0.00  0.00  0.00  0.00
  YSB6556YSB1171          1.00   0.02  0.03  0.00  0.95  0.00  0.00  0.00  0.00  0.00
  YS02001907YS02006553    1.00   0.00  0.01  0.00  0.99  0.00  0.00  0.00  0.00  0.00
  YS02006558YS02006561    1.00   0.09  0.00  0.00  0.00  0.91  0.00  0.00  0.59  0.00
  YS02001633YS02163601    1.00   0.00  0.00  0.00  1.00  0.00  0.00  0.00  0.18  0.00
  YS02001644YS02001647    1.00   0.00  0.09  0.00  0.91  0.00  0.00  0.00  0.00  0.00
  YS02001745YS02001748    1.00   0.00  0.00  0.00  0.86  0.00  0.00  0.13  0.03  0.00
  YS02001748YS02001751    1.00   0.00  0.00  0.00  0.95  0.05  0.00  0.00  0.16  0.00
  YS02001751YS02001754    1.00   0.00  0.00  0.00  0.90  0.00  0.00  0.10  0.02  0.00
  YS02001754YS02001757    1.00   0.00  0.00  0.00  1.00  0.00  0.00  0.00  0.23  0.00
  YS02001882YS02001884    1.00   0.07  0.00  0.00  0.92  0.00  0.00  0.00  0.00  0.00
  YS02001884YS02001887    1.00   0.03  0.02  0.00  0.95  0.00  0.00  0.00  0.00  0.00
  YS02001890YS02001895    1.00   0.00  0.08  0.00  0.92  0.00  0.00  0.00  0.00  0.00
  YS02001895YS02001898    1.00   0.08  0.00  0.00  0.90  0.00  0.02  0.00  0.00  0.00
  YS02001898YS02001901    1.00   0.08  0.00  0.00  0.92  0.00  0.00  0.00  0.02  0.00
  YS02001901YS02001904    1.00   0.08  0.00  0.00  0.92  0.00  0.00  0.00  0.00  0.00
  YS02001904YS02001907    1.00   0.00  0.08  0.00  0.92  0.00  0.00  0.00  0.00  0.00
  YS02001887YS02001890    1.00   0.00  0.00  0.00  0.98  0.00  0.02  0.00  0.00  0.00
  YS02001652YS02001649    1.00   0.00  0.00  0.00  1.00  0.00  0.00  0.00  0.21  0.00
  YS02001655YS02001652    1.00   0.00  0.00  0.00  0.90  0.00  0.00  0.10  0.02  0.00
  YS02001658YS02001655    1.00   0.00  0.07  0.00  0.88  0.05  0.00  0.00  0.08  0.00
  YS02001661YS02001658    1.00   0.07  0.00  0.00  0.86  0.07  0.00  0.00  0.03  0.00
  YS02001664YS02001661    1.00   0.05  0.00  0.00  0.88  0.06  0.00  0.00  0.24  0.00
  YSB1154YSB6556          1.00   0.05  0.00  0.00  0.95  0.00  0.00  0.00  0.02  0.00
  YSB1174YSB1171          1.00   0.03  0.02  0.00  0.96  0.00  0.00  0.00  0.00  0.00
  YSB1171HS02004479       1.00   0.02  0.00  0.00  0.97  0.00  0.00  0.00  0.12  0.00
  HS02004881HS02006253    1.00   0.03  0.00  0.00  0.33  0.01  0.00  0.64  0.16  0.00
  YS02001793JiankangQianchi    1.00   0.00  0.00  0.00  0.57  0.43  0.00  0.00  0.51  0.00
  YS02001757CaochengTiaoxuchi    1.00   0.00  0.12  0.00  0.88  0.01  0.00  0.00  0.00  0.00
  WSF200WS02003060        1.00   0.00  0.01  0.00  0.90  0.09  0.00  0.00  0.73  0.00
  1                       1.00   0.00  0.00  0.00  0.00  1.00  0.00  0.00  0.48  0.00
  
  
  *************************
  Conduit Surcharge Summary
  *************************
  
  ----------------------------------------------------------------------------
                                                           Hours        Hours 
                         --------- Hours Full --------   Above Full   Capacity
  Conduit                Both Ends  Upstream  Dnstream   Normal Flow   Limited
  ----------------------------------------------------------------------------
  WS02006229WS02006228        1.09      1.20      1.09      2.48         1.09
  WS02006256WS02006235        4.42      4.42      6.14      3.30         0.01
  WS02006253WS02006251        0.28      0.28      0.30      0.01         0.02
  WS02006252WS02006251        0.33      0.33      0.61      0.54         0.01
  WS02006251WS02006249        0.30      0.30      0.31      0.26         0.19
  WS02006249WS02006248        0.30      0.30      0.31      0.86         0.01
  WS02006248WS02006247        0.31      0.31      0.34      0.01         0.01
  WS02006247WS02006245        0.34      0.35      0.34      1.27         0.33
  WS02006245WS02006243        0.35      0.35      0.36      0.18         0.16
  WS02006243WS02006242        0.38      0.38      0.44      0.01         0.01
  WS02006242WS02006240        0.40      0.40      0.50      0.54         0.01
  WS02006240WS02006239        0.41      0.41      0.42      0.34         0.22
  WS02006239WS02006238        0.46      0.47      0.69      0.36         0.25
  WS02006238WS02006235        0.67      0.67      0.89      0.01         0.01
  WS02006235WS02006234        0.39      0.39      0.60      4.22         0.01
  WS02006234WS02006232        0.48      0.48      1.10      0.13         0.15
  WS02006232WS02006231        0.24      0.24      1.10      0.20         0.01
  WS02006231WS02006230        0.10      0.10      0.26      4.59         0.01
  WS02006230WS02006229        1.66      2.11      1.66      4.97         1.66
  WS02006228WS02006109        1.15      1.35      1.15      3.49         1.15
  WS02006112WS02006115        0.01      0.01      0.64      0.01         0.01
  WS02006111WS02006112        0.01      0.01      2.59      0.01         0.01
  WS02006110WS02006113        0.01      0.01      1.27      0.01         0.01
  WS02006109WS02006110        0.44      0.44      1.35      0.45         0.01
  WS02004405WS02004406        0.01      0.01      0.01      0.51         0.01
  WS02004404WS02004405        0.01      0.01      0.01      4.80         0.01
  WS02003072WS02003073        0.01      0.01      0.01      4.66         0.01
  HS02004480HS02004478        0.01      0.01      0.01      0.18         0.01
  YS02001759YS02001757        5.62      5.62      5.65      0.01         0.01
  YS02001762YS02001759        5.60      5.60      5.62      0.01         0.01
  YS02001765YS02001762        5.58      5.58      5.60      0.01         0.01
  YS02001770YS02001767        5.56      5.57      5.57      0.01         0.61
  YS02001774YS02001770        5.56      5.56      5.60      0.01         0.01
  YS02001779YS02001774        5.39      5.39      5.60      0.01         0.01
  YS02001649YS02001757        5.60      5.60      5.65      0.01         0.01
  YS02001767YS02001765        5.57      5.57      5.58      0.01         0.01
  YS02006561YS02001783        0.01      0.01      0.05      0.01         0.01
  YS02001783YS02001784        0.05      0.05      0.19      0.01         0.01
  YS02001784YS02001785        0.06      0.19      0.06      1.28         0.06
  YS02001788YS02001790        0.03      0.03      1.02      0.01         0.01
  YS02001790YS02001791        1.02      1.02      1.14      0.01         0.01
  YS02001791YS02001793        1.14      1.14      1.57      0.01         0.01
  YS02001910YS02001907        0.01      0.01      0.72      0.01         0.01
  YS02001786YS02001788        0.03      0.06      0.04      0.94         0.03
  YS02001629YS02163301        5.55      5.55      5.56      0.01         0.01
  YS02001619YS02001622        5.06      5.06      5.14      0.01         0.01
  YS02001622YS02001625        5.13      5.13      5.50      0.01         0.01
  YS02001625YS02001629        5.07      5.07      5.50      0.01         0.01
  YS02163301YS02001633        5.56      5.56      5.58      0.01         0.01
  YS02163601YS02164001        5.58      5.58      5.60      0.01         0.01
  YS02164001YS02001641        5.58      5.58      5.59      0.01         0.02
  YS02001641YS02001644        5.59      5.59      5.59      0.01         0.74
  YS02001647YS02001649        5.46      5.46      5.60      0.01         0.01
  YS02006553YS02006556        0.01      0.01      0.81      0.01         0.01
  YS02006556YS02006558        0.08      0.08      0.89      0.01         0.01
  YS02001907YS02006553        1.30      1.30      1.47      0.01         0.01
  YS02006558YS02006561        0.01      0.01      0.01      1.14         0.01
  YS02001633YS02163601        5.58      5.58      5.60      0.01         0.01
  YS02001644YS02001647        5.46      5.46      5.59      0.01         0.01
  YS02001745YS02001748        0.01      0.01      4.84      0.01         0.01
  YS02001748YS02001751        4.90      4.90      5.12      0.01         0.01
  YS02001751YS02001754        5.12      5.12      5.40      0.01         0.01
  YS02001754YS02001757        5.44      5.44      5.65      0.01         0.01
  YS02001904YS02001907        0.01      0.01      0.84      0.01         0.01
  YS02001652YS02001649        5.48      5.48      5.60      0.01         0.01
  YS02001655YS02001652        5.14      5.14      5.43      0.01         0.01
  YS02001658YS02001655        4.86      4.86      5.14      0.01         0.01
  YS02001661YS02001658        0.02      0.02      4.86      0.01         0.01
  YS02001664YS02001661        0.01      0.01      0.29      0.01         0.01
  HS02004881HS02006253        0.01      0.01      0.15      0.01         0.01
  YS02001793JiankangQianchi        1.45      1.45      3.63      0.01         0.01
  YS02001757CaochengTiaoxuchi        4.84      4.84      5.65      0.01         0.01
  
  
  ***************
  Pumping Summary
  ***************
  
  ---------------------------------------------------------------------------------------------------------
                                                  Min       Avg       Max     Total     Power    % Time Off
                        Percent   Number of      Flow      Flow      Flow    Volume     Usage    Pump Curve
  Pump                 Utilized   Start-Ups       LPS       LPS       LPS  10^6 ltr     Kw-hr    Low   High
  ---------------------------------------------------------------------------------------------------------
  CC-Pump-1               25.53           3      0.00    122.96    200.00     0.840      0.80    0.0    0.0
  CC-Pump-2               14.89           3      0.00    108.07    200.00     0.480      0.57    0.0    0.0
  JK-Pump-1               46.79           5      0.00    184.73    300.00     2.430     41.45    0.0    0.0
  JK-Pump-2               38.28           4      0.00    287.88    683.00     3.290     56.86    0.0   95.0
  XR-Pump-1               93.62           1      0.00     92.78     95.00     2.480     43.71    0.0    0.0
  XR-Pump-2               89.37           3      0.00     89.48     95.00     2.195     37.61    0.0    0.0
  XR-Pump-3               87.24           4      0.00     89.44     95.00     2.138     36.34    0.0    0.0
  XR-Pump-4               87.24           4      0.00     89.44     95.00     2.138     36.34    0.0    0.0
  
  
  ***************************
  Link Pollutant Load Summary
  ***************************
  
  ------------------------------------------------------------------------------------------
                                 COD            SS            TN            TP         NH4-N
  Link                            kg            kg            kg            kg            kg
  ------------------------------------------------------------------------------------------
  WS02003066WSF200           395.937       707.085        13.288         1.304         7.372
  WS02006287WS02006284       166.214       299.431         7.383         0.804         4.283
  WS02006284WS02006280       166.632       300.106         7.422         0.809         4.308
  WS02006280WS02006229       166.610       300.061         7.421         0.809         4.308
  WS02006229WS02006228       404.648       722.594        13.146         1.270         7.246
  WS02006256WS02006235       113.977       200.008         2.872         0.241         1.501
  WS02006253WS02006251        30.002        56.475         0.744         0.060         0.381
  WS02006252WS02006251       104.880       184.901         2.396         0.185         1.207
  WS02006251WS02006249       129.222       231.465         3.013         0.236         1.525
  WS02006249WS02006248       126.817       227.205         2.960         0.232         1.499
  WS02006248WS02006247       127.012       227.552         2.968         0.233         1.503
  WS02006247WS02006245       127.367       228.133         2.980         0.234         1.510
  WS02006245WS02006243       127.859       228.980         2.996         0.236         1.518
  WS02006243WS02006242       129.193       231.221         3.036         0.239         1.540
  WS02006242WS02006240       131.999       235.999         3.103         0.244         1.574
  WS02006240WS02006239       135.167       241.452         3.178         0.250         1.612
  WS02006239WS02006238       139.288       248.476         3.289         0.260         1.671
  WS02006238WS02006235       141.848       252.750         3.357         0.266         1.707
  WS02006235WS02006234       239.467       424.957         5.786         0.468         2.974
  WS02006234WS02006232       239.525       425.004         5.793         0.469         2.978
  WS02006232WS02006231       238.829       423.816         5.771         0.467         2.967
  WS02006231WS02006230       238.748       423.697         5.769         0.467         2.965
  WS02006230WS02006229       239.649       425.389         5.796         0.470         2.980
  WS02006228WS02006109       403.574       720.740        13.104         1.266         7.222
  WS02006116WS02004401       410.239       731.899        13.739         1.347         7.619
  WS02006115WS02006116       411.621       734.291        13.785         1.351         7.645
  WS02006113WS02006111       409.901       730.669        13.813         1.356         7.669
  WS02006112WS02006115       412.530       735.831        13.832         1.357         7.673
  WS02006111WS02006112       409.440       729.866        13.795         1.354         7.659
  WS02006110WS02006113       410.194       731.155        13.834         1.359         7.682
  WS02006109WS02006110       411.023       732.539        13.885         1.365         7.713
  WS02004411WS02004412       399.620       713.404        13.438         1.320         7.458
  WS02004401WS02004402       409.016       729.810        13.684         1.341         7.587
  WS02004413WS02003067       396.876       708.733        13.311         1.306         7.385
  WS02004412WS02004413       398.130       710.823        13.386         1.315         7.430
  WS02004410WS02004411       400.804       715.459        13.476         1.324         7.479
  WS02004409WS02004410       401.860       717.279        13.516         1.328         7.502
  WS02004407WS02004409       402.842       718.993        13.541         1.330         7.515
  WS02004406WS02004407       403.323       719.848        13.544         1.330         7.515
  WS02004405WS02004406       405.016       722.731        13.623         1.338         7.561
  WS02004404WS02004405       406.777       725.840        13.654         1.340         7.576
  WS02004403WS02004404       406.502       725.496        13.581         1.330         7.528
  WS02004402WS02004403       407.625       727.411        13.633         1.336         7.559
  WS02004139WS02001211      1328.435      2144.791       119.969        14.859        74.574
  WS02004138WS02004139      1328.681      2145.210       119.981        14.860        74.581
  WS02003067WS02003066       396.128       707.409        13.297         1.305         7.378
  WS02001213WS02003059      1374.617      2218.655       124.415        15.415        77.353
  WS02001212WS02001213      1378.184      2224.391       124.745        15.456        77.559
  WS02001211WS02001212      1378.177      2224.374       124.746        15.456        77.560
  WS02003072WS02003073      1882.823      3105.008       148.650        18.090        91.574
  WS02003069WS02003072      1885.380      3109.105       148.890        18.120        91.724
  WS02003060WS02003069      1885.099      3108.796       148.797        18.108        91.663
  WS02003059WS02003060      1375.889      2220.682       124.541        15.431        77.432
  HS02004901HS02004770         5.332        10.017         0.101         0.007         0.047
  HS02004876HS02004881        20.133        38.442         0.500         0.040         0.254
  HS02004870HS02004876        15.279        29.037         0.417         0.034         0.216
  HS02004842HS02004848         2.793         5.105         0.060         0.004         0.027
  HS02004837HS02004842         7.400        12.429         0.528         0.063         0.321
  HS02004830HS02004837        54.926        91.631         4.351         0.531         2.686
  HS02004824HS02004830        55.675        92.832         4.423         0.540         2.731
  HS02004817HS02004824        66.944       114.362         4.679         0.558         2.859
  HS02004770HS02004777        20.352        38.588         0.427         0.028         0.195
  HS02004799HS02004480        74.860       136.430         2.569         0.256         1.413
  HS02004792HS02004799        68.429       123.564         2.497         0.255         1.387
  HS02004788HS02004792        41.689        75.007         1.843         0.197         1.056
  HS02004785HS02004788        21.850        40.997         0.579         0.048         0.291
  HS02004777HS02004785        21.287        40.085         0.529         0.041         0.260
  HS02004480HS02004478        93.150       171.918         2.837         0.273         1.533
  HS02004479HS02004480        22.467        42.137         0.664         0.066         0.367
  HS02004862HS02004870        11.364        21.168         0.339         0.030         0.179
  HS02004848HS02004852         3.881         7.193         0.082         0.005         0.037
  HS02004856HS02004862         7.140        13.674         0.144         0.009         0.067
  HS02004852HS02004856         3.877         7.185         0.082         0.005         0.037
  HS02004802HS02004478        73.400       128.074         4.574         0.535         2.768
  HS02004478WS02006287       166.404       299.752         7.398         0.806         4.293
  HS02004817HS02004807        65.585       112.187         4.550         0.542         2.779
  HS02004807HS02004802        74.001       129.030         4.633         0.542         2.805
  YS02001759YS02001757       206.598       363.017         4.364         0.304         2.152
  YS02001762YS02001759       103.909       183.996         2.393         0.172         1.203
  YS02001765YS02001762       103.416       183.198         2.408         0.174         1.214
  YS02001770YS02001767       101.131       179.536         2.120         0.136         1.030
  YS02001774YS02001770        20.766        36.596         0.443         0.029         0.216
  YS02001779YS02001774        20.220        35.460         0.555         0.046         0.293
  YS02001649YS02001757       263.585       452.846         5.542         0.390         2.681
  YS02001767YS02001765       103.400       183.163         2.423         0.175         1.223
  YS02006561YS02001783       449.770       784.641        10.738         0.859         5.517
  YS02001783YS02001784       449.717       784.576        10.735         0.859         5.516
  YS02001784YS02001785       457.098       796.415        11.448         0.948         5.962
  YS02001788YS02001790       457.800       797.581        11.522         0.958         6.008
  YS02001790YS02001791       458.895       799.370        11.623         0.970         6.071
  YS02001791YS02001793       458.845       799.281        11.619         0.970         6.069
  YS02001910YS02001907       150.003       256.575         4.747         0.420         2.578
  YS02001786YS02001788       457.360       796.863        11.477         0.952         5.980
  YS02001915YS02001910       149.918       256.402         4.697         0.413         2.545
  YS02001918YS02001915        73.467       119.962         3.040         0.320         1.753
  YS02001923YS02001920        53.519        88.083         1.093         0.076         0.535
  YS02001926YS02001923        53.169        87.524         1.054         0.071         0.510
  YS02001929YS02001926        52.922        87.118         1.023         0.067         0.491
  YS02001920YS02001918        73.433       119.950         3.011         0.316         1.734
  YS02001629YS02163301        60.036       102.352         1.295         0.082         0.601
  YS02001619YS02001622        62.762       106.577         1.359         0.086         0.629
  YS02001622YS02001625        61.677       104.904         1.333         0.084         0.617
  YS02001625YS02001629        60.583       103.264         1.307         0.083         0.606
  YS02163301YS02001633        60.934       103.942         1.310         0.084         0.609
  YS02163601YS02164001       166.624       282.386         3.456         0.243         1.657
  YS02164001YS02001641       166.297       281.856         3.437         0.241         1.646
  YS02001641YS02001644       167.244       283.431         3.448         0.241         1.650
  YS02001647YS02001649       236.513       403.893         4.962         0.348         2.403
  YS02006553YS02006556       324.628       564.334         8.081         0.671         4.218
  YS02006556YS02006558       324.534       564.159         8.049         0.667         4.196
  YSB6556YSB1171              12.278        23.208         0.293         0.027         0.155
  YS02001907YS02006553       324.681       564.445         8.082         0.672         4.218
  YS02006558YS02006561       449.804       784.687        10.737         0.859         5.517
  YS02001633YS02163601       167.299       283.406         3.439         0.239         1.643
  YS02001644YS02001647       240.176       410.319         5.014         0.351         2.426
  YS02001745YS02001748        97.668       168.820         2.856         0.238         1.519
  YS02001748YS02001751        95.580       164.884         2.927         0.251         1.575
  YS02001751YS02001754        95.026       163.965         2.954         0.256         1.596
  YS02001754YS02001757        95.849       165.233         3.122         0.279         1.704
  YS02001882YS02001884         1.896         3.212         0.043         0.004         0.022
  YS02001884YS02001887         5.138         8.903         0.110         0.009         0.056
  YS02001890YS02001895       175.902       309.648         3.364         0.254         1.655
  YS02001895YS02001898       175.753       309.436         3.358         0.253         1.651
  YS02001898YS02001901       175.619       309.242         3.355         0.253         1.650
  YS02001901YS02001904       175.621       309.280         3.372         0.256         1.661
  YS02001904YS02001907       176.207       310.260         3.450         0.266         1.711
  YS02001887YS02001890       176.756       310.965         3.426         0.261         1.693
  YS02001652YS02001649        63.287       109.494         1.386         0.100         0.652
  YS02001655YS02001652        64.230       111.000         1.410         0.102         0.663
  YS02001658YS02001655        63.941       110.481         1.330         0.091         0.610
  YS02001661YS02001658        70.806       122.556         1.471         0.101         0.675
  YS02001664YS02001661        78.687       135.358         1.647         0.112         0.755
  YSB1154YSB6556              11.788        22.426         0.233         0.019         0.117
  YSB1174YSB1171               8.370        15.996         0.200         0.018         0.105
  YSB1171HS02004479           22.392        42.026         0.657         0.065         0.363
  HS02004881HS02006253        22.724        43.554         0.547         0.043         0.276
  YS02001793JiankangQianchi       459.709       800.674        11.672         0.976         6.100
  YS02001757CaochengTiaoxuchi       408.621       716.252         9.296         0.709         4.665
  WSF200WS02003060           395.527       706.345        13.286         1.305         7.373
  1                         1894.182      3122.668       149.970        18.259        92.408
  CC-Pump-1                   66.374       117.033         1.504         0.116         0.756
  CC-Pump-2                   38.116        67.245         0.864         0.066         0.434
  JK-Pump-1                  117.409       206.741         2.944         0.247         1.537
  JK-Pump-2                  190.230       334.544         4.535         0.366         2.335
  XR-Pump-1                  388.942       627.143        35.437         4.395        22.045
  XR-Pump-2                  323.625       522.639        29.172         3.612        18.131
  XR-Pump-3                  309.615       500.224        27.828         3.444        17.290
  XR-Pump-4                  309.615       500.224        27.828         3.444        17.290
  

  Analysis begun on:  Sun Jul 11 11:36:01 2021
  Analysis ended on:  Sun Jul 11 11:36:04 2021
  Total elapsed time: 00:00:03