
  EPA STORM WATER MANAGEMENT MODEL - VERSION 5.1 (Build 5.3.0.dev0)
  --------------------------------------------------------------

  WARNING 04: minimum elevation drop used for Conduit WS02004404WS02004405
  WARNING 03: negative offset ignored for Link YS02001904YS02001907
  
  *********************************************************
  NOTE: The summary statistics displayed in this report are
  based on results found at every computational time step,  
  not just on results from each reporting time step.
  *********************************************************
  
  ****************
  Analysis Options
  ****************
  Flow Units ............... LPS
  Process Models:
    Rainfall/Runoff ........ YES
    RDII ................... NO
    Snowmelt ............... NO
    Groundwater ............ NO
    Flow Routing ........... YES
    Ponding Allowed ........ NO
    Water Quality .......... YES
  Infiltration Method ...... HORTON
  Flow Routing Method ...... DYNWAVE
  Surcharge Method ......... EXTRAN
  Starting Date ............ 08/28/2015 08:00:00
  Ending Date .............. 08/28/2015 15:50:00
  Antecedent Dry Days ...... 8.0
  Report Time Step ......... 00:01:00
  Wet Time Step ............ 00:01:00
  Dry Time Step ............ 00:01:00
  Routing Time Step ........ 5.00 sec
  Variable Time Step ....... YES
  Maximum Trials ........... 8
  Number of Threads ........ 4
  Head Tolerance ........... 0.001500 m
  
  
  **************************        Volume         Depth
  Runoff Quantity Continuity     hectare-m            mm
  **************************     ---------       -------
  Total Precipitation ......         1.841         4.030
  Evaporation Loss .........         0.000         0.000
  Infiltration Loss ........         0.437         0.958
  Surface Runoff ...........         0.984         2.155
  Final Storage ............         0.420         0.919
  Continuity Error (%) .....        -0.023
  
  
  **************************           COD            SS            TN            TP         NH4-N
  Runoff Quality Continuity             kg            kg            kg            kg            kg
  **************************    ----------    ----------    ----------    ----------    ----------
  Initial Buildup ..........     41378.656     70582.865      1804.177       168.684      1032.807
  Surface Buildup ..........        13.364        14.622         3.145         0.292         1.866
  Wet Deposition ...........         0.000         0.000         0.000         0.000         0.000
  Sweeping Removal .........         0.000         0.000         0.000         0.000         0.000
  Infiltration Loss ........        15.908        26.638         0.330         0.022         0.154
  BMP Removal ..............         0.000         0.000         0.000         0.000         0.000
  Surface Runoff ...........       481.137       784.420        10.090         0.639         4.739
  Remaining Buildup ........     40894.826     69786.190      1796.898       168.314      1029.779
  Continuity Error (%) .....         0.000         0.000         0.000         0.000         0.000
  
  
  **************************        Volume        Volume
  Flow Routing Continuity        hectare-m      10^6 ltr
  **************************     ---------     ---------
  Dry Weather Inflow .......         0.616         6.165
  Wet Weather Inflow .......         0.984         9.836
  Groundwater Inflow .......         0.000         0.000
  RDII Inflow ..............         0.000         0.000
  External Inflow ..........         0.102         1.024
  External Outflow .........         1.185        11.847
  Flooding Loss ............         0.130         1.300
  Evaporation Loss .........         0.000         0.000
  Exfiltration Loss ........         0.000         0.000
  Initial Stored Volume ....         0.076         0.761
  Final Stored Volume ......         0.539         5.391
  Continuity Error (%) .....        -4.234
  
  
  **************************           COD            SS            TN            TP         NH4-N
  Quality Routing Continuity            kg            kg            kg            kg            kg
  **************************    ----------    ----------    ----------    ----------    ----------
  Dry Weather Inflow .......      1541.201      2465.922       147.955        18.494        92.472
  Wet Weather Inflow .......       480.966       784.166        10.086         0.639         4.737
  Groundwater Inflow .......         0.000         0.000         0.000         0.000         0.000
  RDII Inflow ..............         0.000         0.000         0.000         0.000         0.000
  External Inflow ..........       183.418       293.469        17.608         2.201        11.005
  External Outflow .........      1625.475      2615.782       143.193        17.683        88.923
  Flooding Loss ............        67.938       111.158         2.219         0.208         1.219
  Exfiltration Loss ........         0.000         0.000         0.000         0.000         0.000
  Mass Reacted .............         0.000         0.000         0.000         0.000         0.000
  Initial Stored Mass ......         0.000         0.000         0.000         0.000         0.000
  Final Stored Mass ........       393.075       625.450        22.032         2.474        13.077
  Continuity Error (%) .....         5.400         5.395         4.672         4.549         4.616
  
  
  *************************
  Highest Continuity Errors
  *************************
  Node YS02001774 (33.67%)
  Node HS02004842 (30.28%)
  Node YS02001884 (25.61%)
  Node JK-storage (-21.04%)
  Node YSB1171 (7.88%)
  
  
  ***************************
  Time-Step Critical Elements
  ***************************
  Link WS02006252WS02006251 (36.88%)
  Link WS02006280WS02006229 (22.00%)
  Link WS02006238WS02006235 (10.59%)
  Link YS02001793JiankangQianchi (10.58%)
  Link YS02001791YS02001793 (3.94%)
  
  
  ********************************
  Highest Flow Instability Indexes
  ********************************
  Link WS02006113WS02006111 (47)
  Link WS02006111WS02006112 (12)
  Link YS02001765YS02001762 (10)
  Link YS02164001YS02001641 (10)
  Link YS02001774YS02001770 (10)
  
  
  *************************
  Routing Time Step Summary
  *************************
  Minimum Time Step           :     0.50 sec
  Average Time Step           :     2.23 sec
  Maximum Time Step           :     5.00 sec
  Percent in Steady State     :    -0.00
  Average Iterations per Step :     2.64
  Percent Not Converging      :     2.77
  
  
  ***************************
  Subcatchment Runoff Summary
  ***************************
  
  ------------------------------------------------------------------------------------------------------------------------------
                            Total      Total      Total      Total     Imperv       Perv      Total       Total     Peak  Runoff
                           Precip      Runon       Evap      Infil     Runoff     Runoff     Runoff      Runoff   Runoff   Coeff
  Subcatchment                 mm         mm         mm         mm         mm         mm         mm    10^6 ltr      LPS
  ------------------------------------------------------------------------------------------------------------------------------
  sub0                       4.03       0.00       0.00       0.28       3.70       0.00       3.70        0.00     1.04   0.919
  sub1                       4.03       0.00       0.00       0.44       3.50       0.00       3.50        0.02     5.89   0.869
  sub2                       4.03       0.00       0.00       1.49       2.46       0.00       2.46        0.02     5.25   0.611
  sub3                       4.03       0.00       0.00       1.49       2.43       0.00       2.43        0.05    10.88   0.602
  sub4                       4.03       0.00       0.00       0.44       3.37       0.00       3.37        0.07    12.24   0.836
  sub5                       4.03       0.00       0.00       0.28       3.66       0.00       3.66        0.04    10.47   0.908
  sub7                       4.03       0.00       0.00       0.36       3.61       0.00       3.61        0.01     3.61   0.895
  sub8                       4.03       0.00       0.00       0.36       3.60       0.00       3.60        0.02     6.43   0.893
  sub9                       4.03       0.00       0.00       0.36       3.60       0.00       3.60        0.02     4.78   0.892
  sub10                      4.03       0.00       0.00       0.32       3.62       0.00       3.62        0.04    10.42   0.899
  sub11                      4.03       0.00       0.00       0.32       3.64       0.00       3.64        0.04    12.06   0.903
  sub12                      4.03       0.00       0.00       0.52       3.46       0.00       3.46        0.03     9.87   0.858
  sub14                      4.03       0.00       0.00       0.36       3.59       0.00       3.59        0.03     9.35   0.892
  sub15                      4.03       0.00       0.00       1.21       2.76       0.00       2.76        0.05    12.73   0.685
  sub16                      4.03       0.00       0.00       1.33       2.66       0.00       2.66        0.03     8.78   0.660
  sub17                      4.03       0.00       0.00       1.29       2.70       0.00       2.70        0.02     7.13   0.670
  sub22                      4.03       0.00       0.00       1.73       2.26       0.00       2.26        0.14    41.17   0.560
  sub23                      4.03       0.00       0.00       1.49       2.50       0.00       2.50        0.12    34.95   0.619
  sub60                      4.03       0.00       0.00       0.48       2.35       0.00       2.35        0.71    62.22   0.583
  sub61                      4.03       0.00       0.00       0.69       2.54       0.00       2.54        0.78    78.10   0.630
  sub62                      4.03       0.00       0.00       0.32       2.72       0.00       2.72        0.83    79.81   0.674
  sub63                      4.03       0.00       0.00       1.17       2.27       0.00       2.27        0.69    72.91   0.563
  sub64                      4.03       0.00       0.00       0.60       2.25       0.00       2.25        0.68    59.07   0.557
  sub65                      4.03       0.00       0.00       0.52       2.27       0.00       2.27        0.70    59.91   0.564
  sub66                      4.03       0.00       0.00       1.17       1.97       0.00       1.97        0.60    54.19   0.488
  sub67                      4.03       0.00       0.00       0.32       3.01       0.00       3.01        0.93   102.51   0.747
  sub68                      4.03       0.00       0.00       0.56       2.71       0.00       2.71        0.83    86.36   0.672
  sub69                      4.03       0.00       0.00       0.60       2.95       0.00       2.95        0.69    85.87   0.731
  sub70                      4.03       3.01       0.00       2.39       3.56       0.00       3.56        0.81    69.06   0.505
  sub71                      4.03       0.00       0.00       0.32       2.59       0.00       2.59        0.61    55.70   0.642
  sub72                      4.03       0.00       0.00       0.28       1.79       0.00       1.79        0.36    26.05   0.443
  1                          4.03       3.46       0.00       1.30       3.57       0.38       3.95        0.93    63.90   0.528
  2                          4.03       0.00       0.00       2.87       0.89       0.11       1.00        0.40    51.77   0.248
  
  
  ****************************
  Subcatchment Washoff Summary
  ****************************
  
  ------------------------------------------------------------------------------------------
                                 COD            SS            TN            TP         NH4-N
  Subcatchment                    kg            kg            kg            kg            kg
  ------------------------------------------------------------------------------------------
  sub0                         0.499         0.896         0.008         0.001         0.004
  sub1                         2.021         3.661         0.039         0.003         0.018
  sub2                         1.155         2.012         0.027         0.002         0.012
  sub3                         2.757         4.729         0.063         0.004         0.028
  sub4                         4.388         7.854         0.093         0.005         0.044
  sub5                         4.606         8.238         0.081         0.006         0.039
  sub7                         1.090         2.022         0.021         0.001         0.010
  sub8                         1.661         3.138         0.035         0.002         0.017
  sub9                         1.394         2.598         0.028         0.002         0.013
  sub10                        3.864         7.012         0.071         0.005         0.034
  sub11                        3.887         7.170         0.074         0.005         0.035
  sub12                        3.246         5.897         0.059         0.004         0.028
  sub14                        2.939         5.424         0.057         0.004         0.027
  sub15                        3.391         5.954         0.069         0.005         0.032
  sub16                        2.175         3.832         0.043         0.003         0.020
  sub17                        1.977         3.446         0.037         0.003         0.017
  sub22                        9.974        17.142         0.199         0.015         0.091
  sub23                        6.288        11.243         0.146         0.009         0.065
  sub60                       30.869        49.835         0.684         0.038         0.326
  sub61                       39.591        63.757         0.792         0.050         0.379
  sub62                       41.955        68.835         0.898         0.052         0.428
  sub63                       30.038        47.893         0.679         0.045         0.307
  sub64                       35.845        55.649         0.708         0.048         0.334
  sub65                       36.765        57.329         0.734         0.049         0.347
  sub66                       22.234        34.998         0.522         0.032         0.239
  sub67                       63.159       102.922         1.171         0.081         0.563
  sub68                       45.013        73.459         0.935         0.058         0.442
  sub69                       42.966        71.362         0.858         0.056         0.406
  sub70                       62.414       103.525         1.369         0.089         0.627
  sub71                       27.833        46.017         0.642         0.034         0.305
  sub72                       16.749        25.469         0.342         0.021         0.163
  1                           28.820        48.181         0.661         0.043         0.297
  2                            4.955         7.808         0.173         0.010         0.071
  ------------------------------------------------------------------------------------------
  System                     586.517       959.306        12.317         0.784         5.771
  
  
  ******************
  Node Depth Summary
  ******************
  
  ---------------------------------------------------------------------------------
                                 Average  Maximum  Maximum  Time of Max    Reported
                                   Depth    Depth      HGL   Occurrence   Max Depth
  Node                 Type       Meters   Meters   Meters  days hr:min      Meters
  ---------------------------------------------------------------------------------
  WS02001211           JUNCTION     0.63     0.78     5.61     0  03:13        0.78
  WS02001212           JUNCTION     0.36     0.49     5.55     0  06:01        0.49
  WS02001213           JUNCTION     0.59     0.73     5.50     0  06:01        0.73
  WS02003069           JUNCTION     0.38     0.56     5.15     0  06:03        0.56
  WS02003072           JUNCTION     0.44     0.62     4.99     0  06:03        0.62
  WS02003073           JUNCTION     0.26     0.38     4.45     0  06:04        0.38
  WS02003060           JUNCTION     0.34     0.50     5.43     0  06:02        0.50
  WS02003066           JUNCTION     0.18     0.30     5.85     0  06:07        0.30
  WS02003059           JUNCTION     0.64     0.79     5.48     0  06:02        0.79
  WS02003067           JUNCTION     0.47     0.70     6.02     0  06:07        0.70
  WS02004401           JUNCTION     0.54     0.85     6.85     0  06:04        0.85
  WS02004402           JUNCTION     0.58     0.87     6.83     0  06:04        0.87
  WS02004403           JUNCTION     0.60     0.89     6.82     0  06:04        0.89
  WS02004404           JUNCTION     0.68     0.96     6.81     0  06:04        0.96
  WS02004406           JUNCTION     0.69     0.95     6.78     0  06:05        0.95
  WS02004409           JUNCTION     0.35     0.66     6.43     0  06:06        0.66
  WS02004410           JUNCTION     0.38     0.68     6.40     0  06:06        0.68
  WS02004411           JUNCTION     0.40     0.69     6.37     0  06:06        0.69
  WS02004412           JUNCTION     0.42     0.69     6.33     0  06:06        0.69
  WS02004413           JUNCTION     0.58     0.85     6.32     0  06:07        0.85
  WS02004405           JUNCTION     0.68     0.95     6.80     0  06:05        0.95
  WS02006109           JUNCTION     0.61     0.98     7.59     0  05:55        0.97
  WS02006110           JUNCTION     0.62     0.93     7.51     0  05:55        0.92
  WS02006111           JUNCTION     0.16     0.29     6.99     0  05:56        0.29
  WS02006112           JUNCTION     0.70     1.04     6.93     0  06:03        1.04
  WS02006113           JUNCTION     0.24     0.45     7.35     0  05:56        0.45
  WS02006115           JUNCTION     0.43     0.75     6.88     0  06:04        0.75
  WS02006116           JUNCTION     0.51     0.82     6.86     0  06:04        0.82
  WS02006230           JUNCTION     0.54     1.10     7.84     0  05:55        1.09
  WS02006231           JUNCTION     0.33     0.84     7.96     0  05:55        0.84
  WS02006232           JUNCTION     0.45     1.03     8.07     0  05:55        1.03
  WS02006234           JUNCTION     0.36     1.04     8.20     0  05:54        1.04
  WS02006235           JUNCTION     0.39     1.13     8.29     0  05:54        1.12
  WS02006238           JUNCTION     0.41     1.15     8.30     0  05:54        1.15
  WS02006240           JUNCTION     0.32     1.11     8.40     0  05:54        1.10
  WS02006242           JUNCTION     0.36     1.20     8.47     0  05:54        1.18
  WS02006243           JUNCTION     0.26     1.11     8.53     0  05:55        1.10
  WS02006245           JUNCTION     0.25     1.10     8.59     0  05:54        1.09
  WS02006247           JUNCTION     0.26     1.12     8.62     0  05:54        1.11
  WS02006248           JUNCTION     0.21     1.08     8.66     0  05:54        1.07
  WS02006249           JUNCTION     0.24     1.09     8.69     0  05:54        1.09
  WS02006239           JUNCTION     0.36     1.14     8.35     0  05:54        1.14
  WS02006251           JUNCTION     0.22     1.21     8.88     0  05:54        1.12
  WS02006252           JUNCTION     0.15     0.78     9.02     0  05:54        0.68
  WS02006253           JUNCTION     0.25     1.26     8.91     0  05:54        1.15
  WS02006256           JUNCTION     1.15     2.35     9.28     0  00:18        2.35
  WS02004138           JUNCTION     0.13     0.20     7.45     0  00:00        0.19
  WS02004139           JUNCTION     0.57     0.72     5.63     0  03:13        0.72
  WS02004407           JUNCTION     0.16     0.29     6.61     0  06:05        0.29
  WS02006228           JUNCTION     0.59     1.02     7.67     0  05:55        1.00
  WS02006229           JUNCTION     0.56     1.01     7.71     0  05:55        1.00
  WS02006280           JUNCTION     0.05     0.13     8.40     0  02:16        0.13
  WS02006284           JUNCTION     0.34     0.46     8.86     0  02:16        0.46
  WS02006287           JUNCTION     0.07     0.19     9.14     0  02:16        0.19
  WSF200               JUNCTION     0.15     0.31     5.54     0  06:07        0.31
  HS02004901           JUNCTION     0.10     0.21    10.03     0  02:13        0.21
  HS02004881           JUNCTION     0.00     0.02     9.05     0  02:15        0.02
  HS02004876           JUNCTION     0.03     0.10     9.13     0  02:15        0.10
  HS02004870           JUNCTION     0.01     0.04     9.32     0  02:16        0.04
  HS02004862           JUNCTION     0.01     0.04     9.42     0  02:17        0.04
  HS02004856           JUNCTION     0.07     0.10     9.53     0  02:16        0.10
  HS02004852           JUNCTION     0.01     0.02     9.53     0  02:17        0.02
  HS02004848           JUNCTION     0.01     0.02     9.62     0  02:15        0.02
  HS02004842           JUNCTION     0.32     0.35     9.62     0  02:15        0.35
  HS02004837           JUNCTION     0.02     0.04     9.62     0  02:15        0.04
  HS02004830           JUNCTION     0.03     0.06     9.53     0  02:16        0.06
  HS02004824           JUNCTION     0.02     0.04     9.44     0  02:19        0.04
  HS02004817           JUNCTION     0.41     0.51     9.35     0  02:16        0.51
  HS02004807           JUNCTION     0.10     0.18     9.35     0  02:16        0.18
  HS02004802           JUNCTION     0.14     0.22     9.35     0  02:16        0.22
  HS02004799           JUNCTION     0.09     0.23     9.44     0  02:14        0.23
  HS02004792           JUNCTION     0.02     0.08     9.61     0  02:13        0.08
  HS02004788           JUNCTION     0.02     0.06     9.96     0  02:14        0.06
  HS02004785           JUNCTION     0.03     0.12    10.02     0  02:14        0.12
  HS02004777           JUNCTION     0.12     0.23    10.03     0  02:14        0.23
  HS02004770           JUNCTION     0.09     0.20    10.03     0  02:14        0.20
  HS02004480           JUNCTION     0.06     0.18     9.42     0  02:14        0.18
  HS02004479           JUNCTION     0.09     0.21     9.42     0  02:15        0.21
  HS02004478           JUNCTION     0.04     0.11     9.34     0  02:15        0.11
  YS02001745           JUNCTION     0.36     0.64     8.16     0  07:50        0.64
  YS02001748           JUNCTION     0.69     1.08     8.16     0  07:50        1.08
  YS02001751           JUNCTION     0.85     1.28     8.16     0  07:50        1.28
  YS02001754           JUNCTION     1.08     1.55     8.16     0  07:50        1.55
  YS02001762           JUNCTION     1.26     1.76     8.16     0  07:50        1.76
  YS02001765           JUNCTION     1.22     1.71     8.16     0  07:50        1.71
  YS02001767           JUNCTION     1.19     1.67     8.16     0  07:50        1.67
  YS02001770           JUNCTION     1.18     1.66     8.16     0  07:50        1.66
  YS02001774           JUNCTION     1.24     1.73     8.16     0  07:50        1.73
  YS02001779           JUNCTION     1.01     1.47     8.16     0  07:50        1.47
  YS02001882           JUNCTION     0.24     0.41     7.12     0  02:53        0.41
  YS02001884           JUNCTION     0.33     0.51     7.12     0  02:54        0.51
  YS02001759           JUNCTION     1.30     1.79     8.16     0  07:50        1.79
  YS02001887           JUNCTION     0.40     0.59     7.12     0  02:54        0.59
  YS02001890           JUNCTION     0.43     0.62     7.12     0  02:53        0.62
  YS02001898           JUNCTION     0.21     0.37     7.11     0  02:55        0.37
  YS02001901           JUNCTION     0.32     0.50     7.11     0  02:55        0.50
  YS02001904           JUNCTION     0.30     0.47     7.10     0  02:55        0.47
  YS02001907           JUNCTION     0.62     0.82     7.11     0  02:55        0.82
  YS02001910           JUNCTION     0.42     0.60     7.11     0  02:55        0.60
  YS02001915           JUNCTION     0.23     0.39     7.11     0  02:54        0.39
  YS02001918           JUNCTION     0.07     0.09     7.15     0  03:03        0.09
  YS02001619           JUNCTION     0.81     1.23     8.16     0  07:47        1.23
  YS02001629           JUNCTION     1.13     1.61     8.16     0  07:50        1.61
  YS02001641           JUNCTION     1.23     1.72     8.16     0  07:50        1.72
  YS02001644           JUNCTION     1.24     1.73     8.16     0  07:50        1.73
  YS02001652           JUNCTION     1.09     1.56     8.16     0  07:50        1.56
  YS02001655           JUNCTION     0.87     1.31     8.16     0  07:49        1.31
  YS02001920           JUNCTION     0.16     0.19     7.20     0  03:03        0.19
  YS02001923           JUNCTION     0.05     0.08     7.34     0  03:02        0.08
  YS02001926           JUNCTION     0.12     0.16     7.61     0  03:01        0.16
  YS02001929           JUNCTION     0.06     0.08     7.77     0  03:01        0.08
  YS02001658           JUNCTION     0.63     1.01     8.16     0  07:46        1.01
  YS02001661           JUNCTION     0.46     0.75     8.16     0  07:46        0.75
  YS02001664           JUNCTION     0.12     0.23     8.16     0  07:45        0.23
  YS02001622           JUNCTION     0.83     1.26     8.16     0  07:47        1.26
  YS02001633           JUNCTION     1.22     1.70     8.16     0  07:50        1.70
  YS02001649           JUNCTION     1.27     1.77     8.16     0  07:50        1.77
  YS02001757           JUNCTION     1.39     1.90     8.16     0  07:50        1.90
  YS02001895           JUNCTION     0.21     0.37     7.12     0  02:54        0.37
  YS02001625           JUNCTION     1.09     1.56     8.16     0  07:50        1.56
  YS02163301           JUNCTION     1.16     1.64     8.16     0  07:50        1.64
  YS02163601           JUNCTION     1.27     1.76     8.16     0  07:50        1.76
  YS02164001           JUNCTION     1.21     1.70     8.16     0  07:50        1.70
  YS02001647           JUNCTION     1.08     1.55     8.16     0  07:50        1.55
  YSB1154              JUNCTION     0.22     0.36     9.42     0  02:15        0.36
  YSB6556              JUNCTION     0.12     0.25     9.42     0  02:14        0.25
  YSB1174              JUNCTION     0.18     0.31     9.42     0  02:15        0.31
  YSB1171              JUNCTION     0.38     0.51     9.42     0  02:15        0.51
  YS02006553           JUNCTION     0.63     0.82     7.11     0  02:55        0.82
  YS02006561           JUNCTION     0.11     0.20     6.86     0  02:55        0.20
  YS02006556           JUNCTION     0.60     0.79     7.10     0  02:55        0.79
  YS02006558           JUNCTION     0.64     0.83     7.10     0  02:55        0.83
  YS02001783           JUNCTION     0.20     0.58     6.72     0  02:42        0.55
  YS02001784           JUNCTION     0.23     0.64     6.71     0  02:42        0.62
  YS02001786           JUNCTION     0.20     0.65     6.68     0  02:43        0.62
  YS02001788           JUNCTION     0.15     0.69     6.66     0  02:41        0.68
  YS02001790           JUNCTION     0.21     1.05     6.69     0  02:39        0.99
  YS02001791           JUNCTION     0.18     1.15     6.62     0  02:42        1.14
  YS02001793           JUNCTION     0.26     1.77     6.60     0  02:42        1.76
  WSC                  OUTFALL      0.26     0.38     1.05     0  06:05        0.38
  JK-storage           STORAGE      1.76     5.80     6.60     0  02:42        5.79
  CC-storage           STORAGE      0.72     1.16     8.16     0  07:50        1.16
  XR-storage           STORAGE      2.03     6.26     4.26     0  07:04        6.26
  
  
  *******************
  Node Inflow Summary
  *******************
  
  -------------------------------------------------------------------------------------------------
                                  Maximum  Maximum                  Lateral       Total        Flow
                                  Lateral    Total  Time of Max      Inflow      Inflow     Balance
                                   Inflow   Inflow   Occurrence      Volume      Volume       Error
  Node                 Type           LPS      LPS  days hr:min    10^6 ltr    10^6 ltr     Percent
  -------------------------------------------------------------------------------------------------
  WS02001211           JUNCTION      7.35   388.59     0  03:30       0.207        7.52       0.521
  WS02001212           JUNCTION      0.00   389.68     0  03:30           0        7.48       0.352
  WS02001213           JUNCTION      0.00   390.81     0  03:30           0        7.45       0.311
  WS02003069           JUNCTION      0.32   880.74     0  06:03     0.00902        11.9       0.194
  WS02003072           JUNCTION      0.00   880.11     0  06:03           0        11.9       0.256
  WS02003073           JUNCTION      1.82   881.57     0  06:04      0.0514        11.9       0.280
  WS02003060           JUNCTION     16.53   880.33     0  06:02       0.466        11.9       0.189
  WS02003066           JUNCTION      0.00   528.71     0  06:07           0        4.04       0.039
  WS02003059           JUNCTION      0.00   392.75     0  03:30           0        7.44       0.499
  WS02003067           JUNCTION      0.00   528.65     0  06:07           0        4.04       0.109
  WS02004401           JUNCTION      0.00   531.46     0  06:04           0        4.15       0.260
  WS02004402           JUNCTION      0.00   531.21     0  06:04           0        4.14       0.263
  WS02004403           JUNCTION      0.00   531.04     0  06:04           0        4.13       0.256
  WS02004404           JUNCTION      0.16   531.10     0  06:04     0.00457        4.12       0.214
  WS02004406           JUNCTION      0.00   531.13     0  06:05           0         4.1       0.525
  WS02004409           JUNCTION      0.00   530.88     0  06:05           0        4.08       0.078
  WS02004410           JUNCTION      0.00   530.05     0  06:05           0        4.08       0.123
  WS02004411           JUNCTION      0.00   529.49     0  06:06           0        4.07       0.152
  WS02004412           JUNCTION      0.00   529.11     0  06:06           0        4.06       0.199
  WS02004413           JUNCTION      0.00   528.83     0  06:06           0        4.06       0.353
  WS02004405           JUNCTION      0.04   531.08     0  06:04     0.00107        4.11       0.314
  WS02006109           JUNCTION      1.23   537.66     0  05:55      0.0347        4.17       0.061
  WS02006110           JUNCTION      0.00   537.93     0  05:55           0        4.17       0.223
  WS02006111           JUNCTION      0.00   558.20     0  05:56           0        4.16       0.019
  WS02006112           JUNCTION      7.13   539.03     0  05:56      0.0231        4.18       0.444
  WS02006113           JUNCTION      0.00   539.13     0  05:55           0        4.16       0.049
  WS02006115           JUNCTION      0.00   535.19     0  06:03           0        4.16       0.181
  WS02006116           JUNCTION      0.00   532.13     0  06:04           0        4.16       0.144
  WS02006230           JUNCTION     10.28   524.34     0  05:55        0.29        3.33       0.143
  WS02006231           JUNCTION      0.00   514.61     0  05:54           0        3.04      -0.033
  WS02006232           JUNCTION      0.00   514.88     0  05:54           0        3.05       0.138
  WS02006234           JUNCTION      0.00   515.33     0  05:54           0        3.04      -0.138
  WS02006235           JUNCTION      0.00   515.61     0  05:54           0        3.16       0.170
  WS02006238           JUNCTION      0.00   349.05     0  05:54           0        1.28      -0.334
  WS02006240           JUNCTION      0.00   348.31     0  05:54           0        1.16       0.020
  WS02006242           JUNCTION      0.00   348.19     0  05:54           0        1.12       0.141
  WS02006243           JUNCTION      0.00   355.78     0  06:41           0        1.08      -0.508
  WS02006245           JUNCTION      0.00   361.23     0  06:41           0        1.08       0.641
  WS02006247           JUNCTION      0.00   365.87     0  06:41           0        1.07       0.129
  WS02006248           JUNCTION      0.00   375.93     0  05:51           0        1.07      -0.145
  WS02006249           JUNCTION      0.00   421.58     0  05:54           0        1.09       0.233
  WS02006239           JUNCTION      0.00   348.76     0  05:54           0        1.22      -0.260
  WS02006251           JUNCTION      0.08   410.02     0  05:54     0.00217        1.12      -0.074
  WS02006252           JUNCTION      0.00   400.00     0  05:50           0       0.961       0.018
  WS02006253           JUNCTION      1.04   104.72     0  05:52       0.003       0.155       0.066
  WS02006256           JUNCTION      0.00   983.00     0  02:50           0        3.26       0.031
  WS02004138           JUNCTION      0.00   380.00     0  00:00           0        7.35       0.078
  WS02004139           JUNCTION      0.32   394.45     0  00:00     0.00905        7.36       0.611
  WS02004407           JUNCTION      0.00   530.98     0  06:05           0        4.08       0.034
  WS02006228           JUNCTION      0.00   536.44     0  05:55           0        4.14       0.063
  WS02006229           JUNCTION      0.00   536.62     0  05:55           0        4.15       0.221
  WS02006280           JUNCTION      0.00   168.36     0  02:16           0       0.821       0.009
  WS02006284           JUNCTION      0.10   168.35     0  02:16      0.0027       0.822       0.138
  WS02006287           JUNCTION      0.00   168.26     0  02:15           0        0.82       0.087
  WSF200               JUNCTION      0.00   528.76     0  06:07           0        4.04       0.022
  HS02004901           JUNCTION      8.78     8.78     0  02:08      0.0279       0.028       6.697
  HS02004881           JUNCTION      3.61    31.43     0  02:15      0.0122       0.127       0.053
  HS02004876           JUNCTION      5.89    28.07     0  02:15      0.0233       0.115       0.456
  HS02004870           JUNCTION      6.43    22.31     0  02:15       0.023      0.0919       0.116
  HS02004862           JUNCTION      5.45    16.29     0  02:16      0.0286      0.0691       0.244
  HS02004856           JUNCTION      4.78    10.89     0  02:15      0.0173       0.042       3.554
  HS02004852           JUNCTION      0.00     6.40     0  02:15           0      0.0247       0.200
  HS02004848           JUNCTION     10.88    10.88     0  02:18      0.0546      0.0546       0.081
  HS02004842           JUNCTION      0.00     4.79     0  02:27           0      0.0429      43.434
  HS02004837           JUNCTION     16.77    20.98     0  02:15       0.219       0.249       0.328
  HS02004830           JUNCTION      0.15    21.12     0  02:15     0.00423       0.239       0.517
  HS02004824           JUNCTION     12.29    33.27     0  02:19      0.0716        0.31       0.175
  HS02004817           JUNCTION      0.60    33.86     0  02:19      0.0169       0.326       5.384
  HS02004807           JUNCTION     12.06    44.93     0  02:17      0.0423       0.352       1.216
  HS02004802           JUNCTION      0.00    45.09     0  02:18           0       0.348       1.182
  HS02004799           JUNCTION      9.35   105.03     0  02:13      0.0342        0.42       0.558
  HS02004792           JUNCTION     41.45    95.85     0  02:13        0.15       0.386       0.108
  HS02004788           JUNCTION     14.40    55.81     0  02:14      0.0946       0.237       0.164
  HS02004785           JUNCTION      0.15    41.76     0  02:13     0.00423       0.144       0.334
  HS02004777           JUNCTION      0.03    42.07     0  02:11    0.000846       0.144       3.718
  HS02004770           JUNCTION     34.95    42.94     0  02:10       0.119       0.145       2.180
  HS02004480           JUNCTION      0.00   123.89     0  02:14           0       0.488       0.143
  HS02004479           JUNCTION      0.00    19.22     0  02:16           0      0.0809       0.909
  HS02004478           JUNCTION      0.00   168.26     0  02:15           0       0.821       0.074
  YS02001745           JUNCTION     62.22    62.22     0  03:01       0.712       0.712       1.266
  YS02001748           JUNCTION      0.04    95.92     0  03:48     0.00127        0.71       3.381
  YS02001751           JUNCTION      0.01   138.95     0  03:06     0.00031       0.687       3.697
  YS02001754           JUNCTION      0.26    82.94     0  02:48     0.00733       0.665       4.011
  YS02001762           JUNCTION      0.00   102.36     0  03:07           0       0.754       3.080
  YS02001765           JUNCTION      0.00    94.66     0  02:53           0       0.758       3.485
  YS02001767           JUNCTION      0.54   118.85     0  03:09      0.0151       0.781       4.911
  YS02001770           JUNCTION     79.96   122.22     0  03:09       0.839       0.858       4.094
  YS02001774           JUNCTION      0.00    54.01     0  03:08           0       0.079      50.771
  YS02001779           JUNCTION      0.01    49.79     0  03:08    0.000141      0.0334      93.093
  YS02001882           JUNCTION      0.00     2.98     0  02:05           0     0.00457      54.209
  YS02001884           JUNCTION      0.00     8.67     0  02:08           0      0.0184      34.433
  YS02001759           JUNCTION     78.14   174.72     0  03:07       0.784         1.5       1.653
  YS02001887           JUNCTION    102.96   102.96     0  02:42       0.941        0.95       0.742
  YS02001890           JUNCTION      0.00   102.28     0  02:44           0       0.928       0.834
  YS02001898           JUNCTION      0.00   101.87     0  02:47           0       0.917       0.226
  YS02001901           JUNCTION      0.00   101.73     0  02:48           0       0.916       0.589
  YS02001904           JUNCTION      0.00   101.48     0  02:50           0       0.915       0.547
  YS02001907           JUNCTION      0.00   184.96     0  02:57           0        1.95       1.129
  YS02001910           JUNCTION      0.00    84.67     0  03:01           0        1.05       0.958
  YS02001915           JUNCTION     55.72    84.43     0  03:01       0.611        1.05       0.416
  YS02001918           JUNCTION      0.00    28.92     0  03:03           0       0.443       0.237
  YS02001619           JUNCTION     54.19    54.19     0  03:01       0.602       0.602       2.228
  YS02001629           JUNCTION      0.00    90.95     0  03:14           0       0.519       6.274
  YS02001641           JUNCTION      0.00   120.23     0  03:08           0        1.11       2.041
  YS02001644           JUNCTION     59.11   176.71     0  03:07       0.683        1.77       1.550
  YS02001652           JUNCTION      0.00    96.91     0  02:59           0       0.622       4.077
  YS02001655           JUNCTION      0.15   133.67     0  03:04     0.00434        0.65       4.083
  YS02001920           JUNCTION      2.87    28.94     0  03:02      0.0809       0.445       0.440
  YS02001923           JUNCTION      0.04    26.07     0  03:02     0.00106       0.364       0.077
  YS02001926           JUNCTION      0.05    26.09     0  03:01     0.00147       0.365       0.551
  YS02001929           JUNCTION     26.05    26.05     0  03:01       0.364       0.364       0.074
  YS02001658           JUNCTION      0.00   101.97     0  03:54           0        0.67       3.657
  YS02001661           JUNCTION      0.00    72.91     0  02:45           0       0.685       2.594
  YS02001664           JUNCTION     72.91    72.91     0  02:45       0.687       0.687       0.342
  YS02001622           JUNCTION      0.00    77.80     0  03:12           0       0.589       5.896
  YS02001633           JUNCTION     60.11   115.92     0  03:11       0.704        1.17       2.886
  YS02001649           JUNCTION      0.00   256.34     0  03:01           0        2.29       1.738
  YS02001757           JUNCTION      0.00   425.94     0  02:57           0        4.34       2.213
  YS02001895           JUNCTION      0.00   102.04     0  02:46           0        0.92       0.388
  YS02001625           JUNCTION      0.00    78.74     0  03:13           0       0.557       7.609
  YS02163301           JUNCTION      0.00    64.29     0  03:04           0       0.495       5.387
  YS02163601           JUNCTION      0.11   128.43     0  03:06      0.0031        1.14       2.816
  YS02164001           JUNCTION      0.00   128.04     0  03:06           0        1.11       2.039
  YS02001647           JUNCTION      0.00   176.08     0  03:02           0        1.73       1.741
  YSB1154              JUNCTION     10.47    10.47     0  02:12      0.0414      0.0427       3.504
  YSB6556              JUNCTION      0.00    10.45     0  02:14           0      0.0436       2.937
  YSB1174              JUNCTION      9.87     9.87     0  02:07      0.0302      0.0311       4.309
  YSB1171              JUNCTION      0.00    19.22     0  02:13           0      0.0802       8.554
  YS02006553           JUNCTION      0.00   185.02     0  03:02           0        1.94       0.733
  YS02006561           JUNCTION      0.00   271.44     0  02:55           0        2.75       0.023
  YS02006556           JUNCTION      0.00   185.27     0  03:02           0        1.94       0.528
  YS02006558           JUNCTION     87.24   271.44     0  02:55       0.857        2.78       0.161
  YS02001783           JUNCTION      0.00   271.44     0  02:55           0        2.75       0.052
  YS02001784           JUNCTION      1.06   320.10     0  02:43      0.0299        2.78       0.085
  YS02001786           JUNCTION      0.06   315.79     0  02:44     0.00159        2.78       0.085
  YS02001788           JUNCTION      0.07   374.91     0  02:46       0.002        2.78       0.050
  YS02001790           JUNCTION      0.15   437.83     0  02:46     0.00437        2.78       0.156
  YS02001791           JUNCTION      0.00   488.58     0  02:46           0        2.78       0.303
  YS02001793           JUNCTION      0.00   530.60     0  02:46           0        2.77       0.564
  WSC                  OUTFALL       0.00   881.08     0  06:05           0        11.8       0.000
  JK-storage           STORAGE       0.00   582.38     0  02:49           0        2.91     -17.384
  CC-storage           STORAGE       0.00   423.19     0  02:59           0        4.24       1.424
  XR-storage           STORAGE     310.40   310.40     0  03:01        6.97        7.57      -1.992
  
  
  **********************
  Node Surcharge Summary
  **********************
  
  Surcharging occurs when water rises above the top of the highest conduit.
  ---------------------------------------------------------------------
                                               Max. Height   Min. Depth
                                   Hours       Above Crown    Below Rim
  Node                 Type      Surcharged         Meters       Meters
  ---------------------------------------------------------------------
  WS02006109           JUNCTION        0.42          0.157        1.663
  WS02006110           JUNCTION        0.17          0.016        1.834
  WS02006112           JUNCTION        0.21          0.043        1.637
  WS02006230           JUNCTION        0.14          0.018        1.552
  WS02006231           JUNCTION        0.23          0.132        1.398
  WS02006232           JUNCTION        0.48          0.335        1.145
  WS02006234           JUNCTION        0.36          0.322        0.918
  WS02006235           JUNCTION        0.41          0.416        0.874
  WS02006238           JUNCTION        0.42          0.433        0.997
  WS02006240           JUNCTION        0.35          0.398        0.992
  WS02006242           JUNCTION        0.37          0.469        0.351
  WS02006243           JUNCTION        0.31          0.405        0.365
  WS02006245           JUNCTION        0.29          0.393        0.457
  WS02006247           JUNCTION        0.29          0.415        0.345
  WS02006248           JUNCTION        0.26          0.356        0.024
  WS02006249           JUNCTION        0.27          0.390        0.000
  WS02006239           JUNCTION        0.37          0.400        0.890
  WS02006251           JUNCTION        0.16          0.184        0.996
  WS02006252           JUNCTION        0.49          0.379        0.721
  WS02006253           JUNCTION        0.16          0.221        2.259
  WS02006256           JUNCTION        5.49          2.050        0.000
  WS02006228           JUNCTION        0.41          0.186        2.014
  YS02001751           JUNCTION        3.42          0.278        0.922
  YS02001754           JUNCTION        4.11          0.499        0.651
  YS02001762           JUNCTION        4.87          0.756        0.394
  YS02001765           JUNCTION        4.70          0.706        0.394
  YS02001767           JUNCTION        4.59          0.667        0.363
  YS02001770           JUNCTION        4.48          0.630        0.290
  YS02001774           JUNCTION        4.81          0.733        0.317
  YS02001779           JUNCTION        3.99          0.469        0.211
  YS02001759           JUNCTION        4.98          0.792        0.418
  YS02001619           JUNCTION        3.25          0.231        0.379
  YS02001629           JUNCTION        3.25          0.230        0.240
  YS02001641           JUNCTION        4.76          0.721        0.379
  YS02001644           JUNCTION        4.78          0.725        0.195
  YS02001652           JUNCTION        4.20          0.530        0.600
  YS02001655           JUNCTION        3.52          0.306        0.894
  YS02001658           JUNCTION        0.21          0.014        1.286
  YS02001622           JUNCTION        3.34          0.256        0.364
  YS02001633           JUNCTION        4.64          0.685        0.375
  YS02001649           JUNCTION        4.91          0.766        0.284
  YS02001757           JUNCTION        5.26          0.895        0.315
  YS02001625           JUNCTION        4.27          0.556        0.224
  YS02163301           JUNCTION        4.52          0.642        0.388
  YS02163601           JUNCTION        4.89          0.760        0.320
  YS02164001           JUNCTION        4.69          0.700        0.400
  YS02001647           JUNCTION        4.23          0.547        0.353
  YS02001790           JUNCTION        0.10          0.247        0.910
  YS02001791           JUNCTION        0.25          0.346        1.574
  YS02001793           JUNCTION        0.79          0.773        1.827
  
  
  *********************
  Node Flooding Summary
  *********************
  
  Flooding refers to all water that overflows a node, whether it ponds or not.
  --------------------------------------------------------------------------
                                                             Total   Maximum
                                 Maximum   Time of Max       Flood    Ponded
                        Hours       Rate    Occurrence      Volume     Depth
  Node                 Flooded       LPS   days hr:min    10^6 ltr    Meters
  --------------------------------------------------------------------------
  WS02006249              0.14     76.41      0  05:54       0.024     0.000
  WS02006256              1.35    737.08      0  05:39       1.276     0.000
  
  
  **********************
  Storage Volume Summary
  **********************
  
  --------------------------------------------------------------------------------------------------
                         Average     Avg  Evap Exfil       Maximum     Max    Time of Max    Maximum
                          Volume    Pcnt  Pcnt  Pcnt        Volume    Pcnt     Occurrence    Outflow
  Storage Unit           1000 m3    Full  Loss  Loss       1000 m3    Full    days hr:min        LPS
  --------------------------------------------------------------------------------------------------
  JK-storage               0.088      30     0     0         0.291     100       0  02:42     983.00
  CC-storage               2.014      13     0     0         3.223      21       0  07:50     400.00
  XR-storage               0.243      26     0     0         0.752      81       0  07:04     380.00
  
  
  ***********************
  Outfall Loading Summary
  ***********************
  
  ---------------------------------------------------------------------------------------------------------------------------------
                         Flow       Avg       Max       Total         Total         Total         Total         Total         Total
                         Freq      Flow      Flow      Volume           COD            SS            TN            TP         NH4-N
  Outfall Node           Pcnt       LPS       LPS    10^6 ltr            kg            kg            kg            kg            kg
  ---------------------------------------------------------------------------------------------------------------------------------
  WSC                   99.99    456.58    881.08      11.846      1625.693      2616.128       143.214        17.685        88.937
  ---------------------------------------------------------------------------------------------------------------------------------
  System                99.99    456.58    881.08      11.846      1625.693      2616.128       143.214        17.685        88.937
  
  
  ********************
  Link Flow Summary
  ********************
  
  -----------------------------------------------------------------------------
                                 Maximum  Time of Max   Maximum    Max/    Max/
                                  |Flow|   Occurrence   |Veloc|    Full    Full
  Link                 Type          LPS  days hr:min     m/sec    Flow   Depth
  -----------------------------------------------------------------------------
  WS02003066WSF200     CONDUIT    528.76     0  06:07      2.76    0.09    0.23
  WS02006287WS02006284 CONDUIT    168.25     0  02:16      1.51    0.08    0.20
  WS02006284WS02006280 CONDUIT    168.36     0  02:16      1.76    0.07    0.18
  WS02006280WS02006229 CONDUIT    168.36     0  02:16      2.82    0.04    0.13
  WS02006229WS02006228 CONDUIT    536.44     0  05:55      1.07    1.78    1.00
  WS02006256WS02006235 CONDUIT    260.14     0  02:42      3.68    2.75    1.00
  WS02006253WS02006251 CONDUIT    104.03     0  05:52      0.45    0.31    1.00
  WS02006252WS02006251 CONDUIT    403.18     0  05:54      3.21    1.48    1.00
  WS02006251WS02006249 CONDUIT    421.58     0  05:54      1.13    1.22    1.00
  WS02006249WS02006248 CONDUIT    375.93     0  05:51      1.19    2.06    1.00
  WS02006248WS02006247 CONDUIT    365.87     0  06:41      1.17    0.80    1.00
  WS02006247WS02006245 CONDUIT    361.23     0  06:41      1.14    2.86    1.00
  WS02006245WS02006243 CONDUIT    355.78     0  06:41      1.19    1.05    1.00
  WS02006243WS02006242 CONDUIT    348.19     0  05:54      1.07    0.74    1.00
  WS02006242WS02006240 CONDUIT    348.31     0  05:54      1.01    1.38    1.00
  WS02006240WS02006239 CONDUIT    348.76     0  05:54      1.07    1.10    1.00
  WS02006239WS02006238 CONDUIT    349.05     0  05:54      0.96    1.12    1.00
  WS02006238WS02006235 CONDUIT    348.73     0  05:54      0.95    0.78    1.00
  WS02006235WS02006234 CONDUIT    515.33     0  05:54      1.34    5.44    1.00
  WS02006234WS02006232 CONDUIT    514.88     0  05:54      1.34    1.04    1.00
  WS02006232WS02006231 CONDUIT    514.61     0  05:54      1.34    1.08    1.00
  WS02006231WS02006230 CONDUIT    514.07     0  05:55      1.35    7.80    1.00
  WS02006230WS02006229 CONDUIT    524.95     0  05:55      1.36   11.68    1.00
  WS02006228WS02006109 CONDUIT    536.43     0  05:55      1.07    2.34    1.00
  WS02006116WS02004401 CONDUIT    531.46     0  06:04      0.96    0.73    0.83
  WS02006115WS02006116 CONDUIT    532.13     0  06:04      1.05    0.68    0.76
  WS02006113WS02006111 CONDUIT    558.20     0  05:56      2.46    0.67    0.46
  WS02006112WS02006115 CONDUIT    535.19     0  06:03      0.76    0.32    0.87
  WS02006111WS02006112 CONDUIT    539.00     0  05:56      1.50    0.26    0.67
  WS02006110WS02006113 CONDUIT    539.13     0  05:55      1.28    0.49    0.78
  WS02006109WS02006110 CONDUIT    537.93     0  05:55      1.07    1.03    1.00
  WS02004411WS02004412 CONDUIT    529.11     0  06:06      0.92    0.75    0.69
  WS02004401WS02004402 CONDUIT    531.21     0  06:04      0.96    0.64    0.86
  WS02004413WS02003067 CONDUIT    528.65     0  06:07      1.10    0.23    0.59
  WS02004412WS02004413 CONDUIT    528.83     0  06:06      0.81    0.35    0.77
  WS02004410WS02004411 CONDUIT    529.49     0  06:06      0.93    0.72    0.68
  WS02004409WS02004410 CONDUIT    530.05     0  06:05      0.96    0.69    0.67
  WS02004407WS02004409 CONDUIT    530.88     0  06:05      1.47    0.19    0.48
  WS02004406WS02004407 CONDUIT    530.98     0  06:05      1.03    0.24    0.62
  WS02004405WS02004406 CONDUIT    531.13     0  06:05      0.96    1.05    0.95
  WS02004404WS02004405 CONDUIT    531.05     0  06:04      1.13    5.20    0.96
  WS02004403WS02004404 CONDUIT    530.94     0  06:04      0.97    0.38    0.92
  WS02004402WS02004403 CONDUIT    531.04     0  06:04      0.99    0.76    0.88
  WS02004139WS02001211 CONDUIT    381.24     0  03:30      0.90    0.48    0.58
  WS02004138WS02004139 CONDUIT    394.13     0  00:00      3.62    0.08    0.43
  WS02003067WS02003066 CONDUIT    528.71     0  06:07      1.20    0.17    0.41
  WS02001213WS02003059 CONDUIT    392.75     0  03:30      0.89    0.65    0.75
  WS02001212WS02001213 CONDUIT    390.81     0  03:30      1.32    0.60    0.45
  WS02001211WS02001212 CONDUIT    389.68     0  03:30      0.78    0.30    0.63
  WS02003072WS02003073 CONDUIT    879.75     0  06:04      1.69    1.90    0.47
  WS02003069WS02003072 CONDUIT    880.11     0  06:03      1.59    0.42    0.49
  WS02003060WS02003069 CONDUIT    880.42     0  06:03      1.84    0.34    0.44
  WS02003059WS02003060 CONDUIT    395.55     0  03:29      0.95    0.26    0.64
  HS02004901HS02004770 CONDUIT      8.18     0  02:12      0.04    0.03    0.29
  HS02004876HS02004881 CONDUIT     28.11     0  02:16      0.49    0.30    0.08
  HS02004870HS02004876 CONDUIT     22.29     0  02:16      0.34    0.01    0.09
  HS02004842HS02004848 CONDUIT      4.79     0  02:27      0.03    0.00    0.27
  HS02004837HS02004842 CONDUIT      4.93     0  02:28      0.42    0.00    0.28
  HS02004830HS02004837 CONDUIT     20.97     0  02:15      0.42    0.02    0.07
  HS02004824HS02004830 CONDUIT     21.12     0  02:16      0.46    0.03    0.07
  HS02004817HS02004824 CONDUIT     33.26     0  02:19      0.17    0.01    0.39
  HS02004770HS02004777 CONDUIT     42.04     0  02:11      0.20    0.08    0.31
  HS02004799HS02004480 CONDUIT    104.86     0  02:14      0.53    0.13    0.28
  HS02004792HS02004799 CONDUIT     95.80     0  02:13      0.61    0.06    0.22
  HS02004788HS02004792 CONDUIT     55.77     0  02:14      0.77    0.04    0.10
  HS02004785HS02004788 CONDUIT     41.65     0  02:14      0.46    0.31    0.13
  HS02004777HS02004785 CONDUIT     41.61     0  02:13      0.24    0.05    0.25
  HS02004480HS02004478 CONDUIT    123.84     0  02:14      0.88    0.52    0.20
  HS02004479HS02004480 CONDUIT     19.39     0  02:17      0.15    0.02    0.28
  HS02004862HS02004870 CONDUIT     16.25     0  02:17      0.43    0.02    0.05
  HS02004848HS02004852 CONDUIT      6.40     0  02:15      0.28    0.01    0.03
  HS02004856HS02004862 CONDUIT     10.86     0  02:16      0.31    0.01    0.05
  HS02004852HS02004856 CONDUIT      6.37     0  02:17      0.10    0.01    0.09
  HS02004802HS02004478 CONDUIT     45.31     0  02:19      0.28    0.04    0.24
  HS02004478WS02006287 CONDUIT    168.26     0  02:15      1.21    0.05    0.16
  HS02004817HS02004807 CONDUIT     34.22     0  02:21      0.10    0.02    0.49
  HS02004807HS02004802 CONDUIT     45.09     0  02:18      0.23    0.09    0.28
  YS02001759YS02001757 CONDUIT    173.95     0  03:07      0.22    0.12    1.00
  YS02001762YS02001759 CONDUIT    102.27     0  03:07      0.17    0.12    1.00
  YS02001765YS02001762 CONDUIT    102.36     0  03:07      0.24    0.10    1.00
  YS02001770YS02001767 CONDUIT    118.32     0  03:09      0.29    0.47    1.00
  YS02001774YS02001770 CONDUIT     54.01     0  03:08      0.13    0.03    1.00
  YS02001779YS02001774 CONDUIT     49.78     0  03:08      0.07    0.03    1.00
  YS02001649YS02001757 CONDUIT    260.54     0  03:01      0.33    0.16    1.00
  YS02001767YS02001765 CONDUIT     94.66     0  02:53      0.26    0.12    1.00
  YS02006561YS02001783 CONDUIT    271.44     0  02:55      1.73    0.14    0.49
  YS02001783YS02001784 CONDUIT    319.04     0  02:43      1.20    0.44    0.73
  YS02001784YS02001785 CONDUIT    315.73     0  02:44      1.33    0.73    0.79
  YS02001788YS02001790 CONDUIT    437.68     0  02:46      1.81    0.32    0.93
  YS02001790YS02001791 CONDUIT    488.58     0  02:46      2.14    0.53    1.00
  YS02001791YS02001793 CONDUIT    530.60     0  02:46      4.21    0.23    1.00
  YS02001910YS02001907 CONDUIT     84.80     0  03:01      0.49    0.05    0.70
  YS02001786YS02001788 CONDUIT    374.84     0  02:46      1.87    0.72    0.81
  YS02001915YS02001910 CONDUIT     84.67     0  03:01      0.45    0.04    0.49
  YS02001918YS02001915 CONDUIT     28.90     0  03:03      0.44    0.02    0.24
  YS02001923YS02001920 CONDUIT     26.07     0  03:02      0.42    0.01    0.13
  YS02001926YS02001923 CONDUIT     26.03     0  03:02      0.46    0.04    0.12
  YS02001929YS02001926 CONDUIT     26.04     0  03:01      0.49    0.01    0.12
  YS02001920YS02001918 CONDUIT     28.92     0  03:03      0.43    0.03    0.14
  YS02001629YS02163301 CONDUIT     64.29     0  03:04      0.10    0.08    1.00
  YS02001619YS02001622 CONDUIT     77.80     0  03:12      0.60    0.11    1.00
  YS02001622YS02001625 CONDUIT     70.17     0  03:13      0.22    0.04    1.00
  YS02001625YS02001629 CONDUIT     90.95     0  03:14      0.22    0.04    1.00
  YS02163301YS02001633 CONDUIT     59.99     0  03:11      0.08    0.06    1.00
  YS02163601YS02164001 CONDUIT    128.04     0  03:06      0.16    0.11    1.00
  YS02164001YS02001641 CONDUIT    120.23     0  03:08      0.15    0.16    1.00
  YS02001641YS02001644 CONDUIT    120.11     0  03:07      0.15    0.39    1.00
  YS02001647YS02001649 CONDUIT    198.33     0  03:07      0.26    0.10    1.00
  YS02006553YS02006556 CONDUIT    185.27     0  03:02      0.28    0.16    0.79
  YS02006556YS02006558 CONDUIT    185.47     0  03:03      0.27    0.15    0.81
  YSB6556YSB1171       CONDUIT     10.58     0  02:17      0.05    0.01    0.54
  YS02001907YS02006553 CONDUIT    185.02     0  03:02      0.23    0.22    0.89
  YS02006558YS02006561 CONDUIT    271.44     0  02:55      2.21    0.60    0.45
  YS02001633YS02163601 CONDUIT    128.32     0  03:06      0.16    0.13    1.00
  YS02001644YS02001647 CONDUIT    176.08     0  03:02      0.24    0.10    1.00
  YS02001745YS02001748 CONDUIT     88.48     0  03:59      1.35    0.03    0.82
  YS02001748YS02001751 CONDUIT    138.94     0  03:06      1.04    0.07    1.00
  YS02001751YS02001754 CONDUIT     82.68     0  02:48      0.91    0.04    1.00
  YS02001754YS02001757 CONDUIT    120.47     0  03:05      0.33    0.05    1.00
  YS02001882YS02001884 CONDUIT      2.98     0  02:05      0.07    0.00    0.43
  YS02001884YS02001887 CONDUIT      8.67     0  02:08      0.05    0.01    0.52
  YS02001890YS02001895 CONDUIT    102.04     0  02:46      0.27    0.05    0.49
  YS02001895YS02001898 CONDUIT    101.87     0  02:47      0.44    0.18    0.36
  YS02001898YS02001901 CONDUIT    101.73     0  02:48      0.31    0.07    0.44
  YS02001901YS02001904 CONDUIT    101.48     0  02:50      0.27    0.16    0.49
  YS02001904YS02001907 CONDUIT    101.45     0  02:50      0.19    0.04    0.65
  YS02001887YS02001890 CONDUIT    102.28     0  02:44      0.22    0.18    0.58
  YS02001652YS02001649 CONDUIT    127.32     0  03:01      0.30    0.06    1.00
  YS02001655YS02001652 CONDUIT     96.91     0  02:59      0.95    0.05    1.00
  YS02001658YS02001655 CONDUIT    133.51     0  03:04      1.19    0.06    1.00
  YS02001661YS02001658 CONDUIT     90.00     0  03:54      1.39    0.04    0.84
  YS02001664YS02001661 CONDUIT     72.91     0  02:45      1.03    0.02    0.49
  YSB1154YSB6556       CONDUIT     10.45     0  02:14      0.19    0.02    0.44
  YSB1174YSB1171       CONDUIT      9.29     0  02:08      0.04    0.01    0.55
  YSB1171HS02004479    CONDUIT     19.22     0  02:16      0.54    0.01    0.42
  HS02004881HS02006253 CONDUIT     31.42     0  02:16      1.53    0.01    0.50
  YS02001793JiankangQianchi CONDUIT    582.38     0  02:49     12.84    0.05    1.00
  YS02001757CaochengTiaoxuchi CONDUIT    423.19     0  02:59      0.84    0.19    1.00
  WSF200WS02003060     CONDUIT    531.33     0  06:07      1.92    0.12    0.33
  1                    CONDUIT    881.08     0  06:05      3.22    0.31    0.38
  CC-Pump-1            PUMP       200.00     0  05:50              1.00
  CC-Pump-2            PUMP       200.00     0  05:50              1.00
  JK-Pump-1            PUMP       300.00     0  02:50              1.00
  JK-Pump-2            PUMP       683.00     0  02:50              1.00
  XR-Pump-1            PUMP        95.00     0  00:00              1.00
  XR-Pump-2            PUMP        95.00     0  00:00              1.00
  XR-Pump-3            PUMP        95.00     0  00:00              1.00
  XR-Pump-4            PUMP        95.00     0  00:00              1.00
  
  
  ***************************
  Flow Classification Summary
  ***************************
  
  -------------------------------------------------------------------------------------
                      Adjusted    ---------- Fraction of Time in Flow Class ---------- 
                       /Actual         Up    Down  Sub   Sup   Up    Down  Norm  Inlet 
  Conduit               Length    Dry  Dry   Dry   Crit  Crit  Crit  Crit  Ltd   Ctrl  
  -------------------------------------------------------------------------------------
  WS02003066WSF200        1.00   0.01  0.05  0.00  0.00  0.94  0.00  0.00  0.85  0.00
  WS02006287WS02006284    1.00   0.06  0.04  0.00  0.69  0.22  0.00  0.00  0.78  0.00
  WS02006284WS02006280    1.00   0.07  0.00  0.00  0.00  0.00  0.00  0.93  0.00  0.00
  WS02006280WS02006229    1.00   0.07  0.00  0.00  0.00  0.00  0.00  0.93  0.00  0.00
  WS02006229WS02006228    1.00   0.00  0.00  0.00  1.00  0.00  0.00  0.00  0.00  0.00
  WS02006256WS02006235    1.00   0.01  0.00  0.00  0.99  0.00  0.00  0.00  0.00  0.00
  WS02006253WS02006251    1.00   0.03  0.03  0.00  0.93  0.00  0.01  0.00  0.00  0.00
  WS02006252WS02006251    1.00   0.50  0.00  0.00  0.02  0.00  0.48  0.00  0.00  0.00
  WS02006251WS02006249    1.00   0.00  0.00  0.00  1.00  0.00  0.00  0.00  0.80  0.00
  WS02006249WS02006248    1.00   0.00  0.01  0.00  0.54  0.00  0.45  0.00  0.00  0.00
  WS02006248WS02006247    1.00   0.01  0.00  0.00  0.97  0.00  0.00  0.02  0.57  0.00
  WS02006247WS02006245    1.00   0.01  0.00  0.00  0.95  0.00  0.00  0.04  0.00  0.00
  WS02006245WS02006243    1.00   0.02  0.00  0.00  0.84  0.00  0.00  0.15  0.01  0.00
  WS02006243WS02006242    1.00   0.02  0.00  0.00  0.98  0.00  0.00  0.00  0.58  0.00
  WS02006242WS02006240    1.00   0.01  0.00  0.00  0.98  0.00  0.01  0.00  0.00  0.00
  WS02006240WS02006239    1.00   0.01  0.00  0.00  0.77  0.00  0.00  0.22  0.02  0.00
  WS02006239WS02006238    1.00   0.01  0.00  0.00  0.99  0.00  0.00  0.00  0.29  0.00
  WS02006238WS02006235    1.00   0.01  0.00  0.00  0.99  0.00  0.00  0.00  0.00  0.00
  WS02006235WS02006234    1.00   0.01  0.00  0.00  0.84  0.00  0.15  0.00  0.00  0.00
  WS02006234WS02006232    1.00   0.01  0.00  0.00  0.99  0.00  0.00  0.00  0.15  0.00
  WS02006232WS02006231    1.00   0.01  0.00  0.00  0.98  0.00  0.00  0.00  0.00  0.00
  WS02006231WS02006230    1.00   0.01  0.00  0.00  0.32  0.00  0.67  0.00  0.00  0.00
  WS02006230WS02006229    1.00   0.00  0.00  0.00  0.98  0.00  0.00  0.02  0.01  0.00
  WS02006228WS02006109    1.00   0.00  0.00  0.00  1.00  0.00  0.00  0.00  0.01  0.00
  WS02006116WS02004401    1.00   0.03  0.00  0.00  0.97  0.00  0.00  0.00  0.00  0.00
  WS02006115WS02006116    1.00   0.03  0.00  0.00  0.97  0.00  0.00  0.01  0.00  0.00
  WS02006113WS02006111    1.00   0.02  0.00  0.00  0.00  0.98  0.00  0.00  0.22  0.00
  WS02006112WS02006115    1.00   0.02  0.00  0.00  0.97  0.00  0.00  0.00  0.00  0.00
  WS02006111WS02006112    1.00   0.02  0.00  0.00  0.97  0.00  0.00  0.00  0.95  0.00
  WS02006110WS02006113    1.00   0.01  0.02  0.00  0.98  0.00  0.00  0.00  0.00  0.00
  WS02006109WS02006110    1.00   0.00  0.00  0.00  0.99  0.00  0.01  0.00  0.00  0.00
  WS02004411WS02004412    1.00   0.04  0.00  0.00  0.96  0.00  0.00  0.00  0.00  0.00
  WS02004401WS02004402    1.00   0.03  0.00  0.00  0.97  0.00  0.00  0.00  0.00  0.00
  WS02004413WS02003067    1.00   0.04  0.01  0.00  0.00  0.00  0.95  0.00  0.00  0.00
  WS02004412WS02004413    1.00   0.04  0.00  0.00  0.96  0.00  0.00  0.00  0.00  0.00
  WS02004410WS02004411    1.00   0.04  0.00  0.00  0.96  0.00  0.00  0.00  0.00  0.00
  WS02004409WS02004410    1.00   0.04  0.00  0.00  0.96  0.00  0.00  0.00  0.00  0.00
  WS02004407WS02004409    1.00   0.04  0.00  0.00  0.96  0.00  0.00  0.00  0.93  0.00
  WS02004406WS02004407    1.00   0.00  0.04  0.00  0.96  0.00  0.00  0.00  0.00  0.00
  WS02004405WS02004406    1.00   0.00  0.00  0.00  1.00  0.00  0.00  0.00  0.02  0.00
  WS02004404WS02004405    1.00   0.00  0.00  0.00  1.00  0.00  0.00  0.00  0.00  0.00
  WS02004403WS02004404    1.00   0.00  0.03  0.00  0.97  0.00  0.00  0.00  0.00  0.00
  WS02004402WS02004403    1.00   0.03  0.00  0.00  0.97  0.00  0.00  0.00  0.00  0.00
  WS02004139WS02001211    1.00   0.00  0.00  0.00  1.00  0.00  0.00  0.00  0.00  0.00
  WS02004138WS02004139    1.00   0.00  0.06  0.00  0.94  0.00  0.00  0.00  1.00  0.00
  WS02003067WS02003066    1.00   0.05  0.00  0.00  0.94  0.00  0.00  0.00  0.00  0.00
  WS02001213WS02003059    1.00   0.00  0.00  0.00  1.00  0.00  0.00  0.00  0.00  0.00
  WS02001212WS02001213    1.00   0.00  0.00  0.00  0.72  0.00  0.28  0.00  0.00  0.00
  WS02001211WS02001212    1.00   0.00  0.00  0.00  1.00  0.00  0.00  0.00  0.00  0.00
  WS02003072WS02003073    1.00   0.00  0.00  0.00  0.00  0.00  0.00  1.00  0.00  0.00
  WS02003069WS02003072    1.00   0.00  0.00  0.00  1.00  0.00  0.00  0.00  0.30  0.00
  WS02003060WS02003069    1.00   0.00  0.00  0.00  0.97  0.03  0.00  0.00  0.18  0.00
  WS02003059WS02003060    1.00   0.00  0.00  0.00  1.00  0.00  0.00  0.00  0.00  0.00
  HS02004901HS02004770    1.00   0.07  0.00  0.00  0.93  0.00  0.00  0.00  0.02  0.00
  HS02004876HS02004881    1.00   0.01  0.00  0.00  0.99  0.00  0.00  0.00  0.00  0.00
  HS02004870HS02004876    1.00   0.00  0.00  0.00  0.99  0.01  0.00  0.00  0.95  0.00
  HS02004842HS02004848    1.00   0.00  0.07  0.00  0.92  0.00  0.00  0.00  0.67  0.00
  HS02004837HS02004842    1.00   0.00  0.00  0.00  1.00  0.00  0.00  0.00  0.11  0.00
  HS02004830HS02004837    1.00   0.00  0.00  0.00  1.00  0.00  0.00  0.00  0.99  0.00
  HS02004824HS02004830    1.00   0.00  0.00  0.00  1.00  0.00  0.00  0.00  0.00  0.00
  HS02004817HS02004824    1.00   0.00  0.00  0.00  1.00  0.00  0.00  0.00  1.00  0.00
  HS02004770HS02004777    1.00   0.00  0.07  0.00  0.93  0.00  0.00  0.00  0.06  0.00
  HS02004799HS02004480    1.00   0.00  0.02  0.00  0.90  0.00  0.08  0.00  0.00  0.00
  HS02004792HS02004799    1.00   0.00  0.00  0.00  1.00  0.00  0.00  0.00  0.98  0.00
  HS02004788HS02004792    1.00   0.00  0.00  0.00  1.00  0.00  0.00  0.00  0.98  0.00
  HS02004785HS02004788    1.00   0.00  0.00  0.00  1.00  0.00  0.00  0.00  0.00  0.00
  HS02004777HS02004785    1.00   0.00  0.00  0.00  1.00  0.00  0.00  0.00  0.19  0.00
  HS02004480HS02004478    1.00   0.08  0.00  0.00  0.70  0.00  0.00  0.22  0.00  0.00
  HS02004479HS02004480    1.00   0.02  0.00  0.00  0.98  0.00  0.00  0.00  0.15  0.00
  HS02004862HS02004870    1.00   0.00  0.00  0.00  1.00  0.00  0.00  0.00  0.06  0.00
  HS02004848HS02004852    1.00   0.08  0.00  0.00  0.92  0.00  0.00  0.00  0.71  0.00
  HS02004856HS02004862    1.00   0.00  0.12  0.00  0.88  0.00  0.00  0.00  0.76  0.00
  HS02004852HS02004856    1.00   0.07  0.02  0.00  0.91  0.00  0.00  0.00  0.83  0.00
  HS02004802HS02004478    1.00   0.07  0.01  0.00  0.91  0.00  0.00  0.00  0.01  0.00
  HS02004478WS02006287    1.00   0.10  0.00  0.00  0.86  0.05  0.00  0.00  0.81  0.00
  HS02004817HS02004807    1.00   0.00  0.07  0.00  0.93  0.00  0.00  0.00  0.00  0.00
  HS02004807HS02004802    1.00   0.07  0.00  0.00  0.92  0.00  0.00  0.00  0.01  0.00
  YS02001759YS02001757    1.00   0.00  0.00  0.00  1.00  0.00  0.00  0.00  0.18  0.00
  YS02001762YS02001759    1.00   0.00  0.00  0.00  1.00  0.00  0.00  0.00  0.04  0.00
  YS02001765YS02001762    1.00   0.00  0.00  0.00  1.00  0.00  0.00  0.00  0.21  0.00
  YS02001770YS02001767    1.00   0.00  0.00  0.00  1.00  0.00  0.00  0.00  0.00  0.00
  YS02001774YS02001770    1.00   0.00  0.09  0.00  0.91  0.00  0.00  0.00  0.06  0.00
  YS02001779YS02001774    1.00   0.00  0.00  0.00  1.00  0.00  0.00  0.00  0.25  0.00
  YS02001649YS02001757    1.00   0.00  0.00  0.00  1.00  0.00  0.00  0.00  0.19  0.00
  YS02001767YS02001765    1.00   0.00  0.00  0.00  1.00  0.00  0.00  0.00  0.01  0.00
  YS02006561YS02001783    1.00   0.13  0.00  0.00  0.01  0.86  0.00  0.00  0.74  0.00
  YS02001783YS02001784    1.00   0.00  0.13  0.00  0.87  0.00  0.00  0.00  0.01  0.00
  YS02001784YS02001785    1.00   0.00  0.00  0.00  1.00  0.00  0.00  0.00  0.24  0.00
  YS02001788YS02001790    1.00   0.00  0.00  0.00  0.24  0.76  0.00  0.00  0.76  0.00
  YS02001790YS02001791    1.00   0.00  0.00  0.00  0.14  0.86  0.00  0.00  0.43  0.00
  YS02001791YS02001793    1.00   0.00  0.00  0.00  0.19  0.81  0.00  0.00  0.08  0.00
  YS02001910YS02001907    1.00   0.00  0.00  0.00  0.99  0.00  0.00  0.01  0.13  0.00
  YS02001786YS02001788    1.00   0.00  0.00  0.00  0.21  0.79  0.00  0.00  0.00  0.00
  YS02001915YS02001910    1.00   0.00  0.00  0.00  0.99  0.01  0.00  0.00  0.23  0.00
  YS02001918YS02001915    1.00   0.00  0.00  0.00  0.99  0.01  0.00  0.00  0.82  0.00
  YS02001923YS02001920    1.00   0.00  0.00  0.00  1.00  0.00  0.00  0.00  1.00  0.00
  YS02001926YS02001923    1.00   0.00  0.04  0.00  0.00  0.00  0.96  0.00  0.00  0.00
  YS02001929YS02001926    1.00   0.00  0.07  0.00  0.93  0.00  0.00  0.00  0.86  0.00
  YS02001920YS02001918    1.00   0.00  0.00  0.00  1.00  0.00  0.00  0.00  0.00  0.00
  YS02001629YS02163301    1.00   0.11  0.01  0.00  0.88  0.00  0.00  0.00  0.00  0.00
  YS02001619YS02001622    1.00   0.07  0.00  0.00  0.93  0.00  0.00  0.00  0.00  0.00
  YS02001622YS02001625    1.00   0.07  0.00  0.00  0.93  0.00  0.00  0.00  0.12  0.00
  YS02001625YS02001629    1.00   0.08  0.06  0.00  0.83  0.00  0.03  0.00  0.00  0.00
  YS02163301YS02001633    1.00   0.00  0.11  0.00  0.89  0.00  0.00  0.00  0.00  0.00
  YS02163601YS02164001    1.00   0.00  0.05  0.00  0.95  0.00  0.00  0.00  0.00  0.00
  YS02164001YS02001641    1.00   0.00  0.04  0.00  0.95  0.00  0.00  0.00  0.07  0.00
  YS02001641YS02001644    1.00   0.00  0.00  0.00  1.00  0.00  0.00  0.00  0.00  0.00
  YS02001647YS02001649    1.00   0.00  0.13  0.00  0.87  0.00  0.00  0.00  0.01  0.00
  YS02006553YS02006556    1.00   0.01  0.00  0.00  0.99  0.00  0.00  0.00  0.03  0.00
  YS02006556YS02006558    1.00   0.00  0.00  0.00  1.00  0.00  0.00  0.00  0.00  0.00
  YSB6556YSB1171          1.00   0.02  0.05  0.00  0.93  0.00  0.00  0.00  0.00  0.00
  YS02001907YS02006553    1.00   0.00  0.01  0.00  0.99  0.00  0.00  0.00  0.00  0.00
  YS02006558YS02006561    1.00   0.13  0.00  0.00  0.00  0.87  0.00  0.00  0.73  0.00
  YS02001633YS02163601    1.00   0.00  0.00  0.00  1.00  0.00  0.00  0.00  0.19  0.00
  YS02001644YS02001647    1.00   0.00  0.13  0.00  0.87  0.00  0.00  0.00  0.00  0.00
  YS02001745YS02001748    1.00   0.00  0.00  0.00  0.77  0.02  0.00  0.21  0.13  0.00
  YS02001748YS02001751    1.00   0.00  0.00  0.00  0.94  0.06  0.00  0.00  0.23  0.00
  YS02001751YS02001754    1.00   0.00  0.00  0.00  0.85  0.00  0.00  0.14  0.02  0.00
  YS02001754YS02001757    1.00   0.00  0.00  0.00  1.00  0.00  0.00  0.00  0.25  0.00
  YS02001882YS02001884    1.00   0.10  0.01  0.00  0.89  0.00  0.00  0.00  0.00  0.00
  YS02001884YS02001887    1.00   0.04  0.03  0.00  0.94  0.00  0.00  0.00  0.00  0.00
  YS02001890YS02001895    1.00   0.00  0.11  0.00  0.89  0.00  0.00  0.00  0.00  0.00
  YS02001895YS02001898    1.00   0.11  0.00  0.00  0.86  0.00  0.02  0.00  0.00  0.00
  YS02001898YS02001901    1.00   0.11  0.01  0.00  0.88  0.00  0.00  0.00  0.02  0.00
  YS02001901YS02001904    1.00   0.11  0.00  0.00  0.89  0.00  0.00  0.00  0.00  0.00
  YS02001904YS02001907    1.00   0.00  0.11  0.00  0.89  0.00  0.00  0.00  0.00  0.00
  YS02001887YS02001890    1.00   0.00  0.00  0.00  0.99  0.00  0.01  0.00  0.00  0.00
  YS02001652YS02001649    1.00   0.00  0.00  0.00  1.00  0.00  0.00  0.00  0.25  0.00
  YS02001655YS02001652    1.00   0.00  0.00  0.00  0.86  0.00  0.00  0.14  0.02  0.00
  YS02001658YS02001655    1.00   0.00  0.09  0.00  0.84  0.07  0.00  0.00  0.13  0.00
  YS02001661YS02001658    1.00   0.09  0.00  0.00  0.77  0.13  0.00  0.00  0.18  0.00
  YS02001664YS02001661    1.00   0.07  0.00  0.00  0.81  0.12  0.00  0.00  0.48  0.00
  YSB1154YSB6556          1.00   0.07  0.00  0.00  0.93  0.00  0.00  0.00  0.02  0.00
  YSB1174YSB1171          1.00   0.03  0.02  0.00  0.95  0.00  0.00  0.00  0.00  0.00
  YSB1171HS02004479       1.00   0.02  0.00  0.00  0.97  0.00  0.00  0.01  0.13  0.00
  HS02004881HS02006253    1.00   0.03  0.00  0.00  0.29  0.00  0.00  0.68  0.11  0.00
  YS02001793JiankangQianchi    1.00   0.00  0.00  0.00  0.66  0.34  0.00  0.00  0.59  0.00
  YS02001757CaochengTiaoxuchi    1.00   0.00  0.16  0.00  0.83  0.00  0.00  0.00  0.00  0.00
  WSF200WS02003060        1.00   0.00  0.01  0.00  0.68  0.31  0.00  0.00  0.69  0.00
  1                       1.00   0.00  0.00  0.00  0.00  1.00  0.00  0.00  0.49  0.00
  
  
  *************************
  Conduit Surcharge Summary
  *************************
  
  ----------------------------------------------------------------------------
                                                           Hours        Hours 
                         --------- Hours Full --------   Above Full   Capacity
  Conduit                Both Ends  Upstream  Dnstream   Normal Flow   Limited
  ----------------------------------------------------------------------------
  WS02006229WS02006228        0.41      0.44      0.41      1.28         0.41
  WS02006256WS02006235        3.00      3.00      5.49      2.52         0.01
  WS02006253WS02006251        0.26      0.26      0.26      0.01         0.01
  WS02006252WS02006251        0.30      0.30      0.49      0.43         0.01
  WS02006251WS02006249        0.26      0.26      0.27      0.23         0.14
  WS02006249WS02006248        0.26      0.26      0.27      0.66         0.01
  WS02006248WS02006247        0.27      0.27      0.29      0.01         0.01
  WS02006247WS02006245        0.29      0.30      0.29      0.88         0.29
  WS02006245WS02006243        0.30      0.30      0.31      0.20         0.15
  WS02006243WS02006242        0.32      0.32      0.37      0.01         0.01
  WS02006242WS02006240        0.35      0.35      0.39      0.48         0.01
  WS02006240WS02006239        0.36      0.36      0.37      0.24         0.21
  WS02006239WS02006238        0.40      0.40      0.42      0.25         0.22
  WS02006238WS02006235        0.42      0.42      0.44      0.01         0.01
  WS02006235WS02006234        0.36      0.36      0.41      2.93         0.01
  WS02006234WS02006232        0.38      0.38      0.48      0.17         0.18
  WS02006232WS02006231        0.23      0.23      0.48      0.21         0.01
  WS02006231WS02006230        0.14      0.14      0.24      3.15         0.01
  WS02006230WS02006229        0.70      1.10      0.70      3.58         0.70
  WS02006228WS02006109        0.42      0.52      0.42      2.22         0.42
  WS02006112WS02006115        0.01      0.01      0.21      0.01         0.01
  WS02006111WS02006112        0.01      0.01      1.26      0.01         0.01
  WS02006110WS02006113        0.01      0.01      0.44      0.01         0.01
  WS02006109WS02006110        0.17      0.17      0.52      0.17         0.01
  WS02004405WS02004406        0.01      0.01      0.01      0.17         0.01
  WS02004404WS02004405        0.01      0.01      0.01      3.74         0.01
  WS02003072WS02003073        0.01      0.01      0.01      2.69         0.01
  YS02001759YS02001757        4.98      4.98      5.26      0.01         0.01
  YS02001762YS02001759        4.87      4.87      4.98      0.01         0.01
  YS02001765YS02001762        4.70      4.70      4.87      0.01         0.01
  YS02001770YS02001767        4.57      4.57      4.59      0.01         0.15
  YS02001774YS02001770        4.48      4.48      4.81      0.01         0.01
  YS02001779YS02001774        3.99      3.99      4.81      0.01         0.01
  YS02001649YS02001757        4.91      4.91      5.26      0.01         0.01
  YS02001767YS02001765        4.59      4.59      4.70      0.01         0.01
  YS02001788YS02001790        0.01      0.01      0.10      0.01         0.01
  YS02001790YS02001791        0.10      0.10      0.25      0.01         0.01
  YS02001791YS02001793        0.25      0.25      1.03      0.01         0.01
  YS02001629YS02163301        4.43      4.43      4.52      0.01         0.01
  YS02001619YS02001622        3.25      3.25      3.34      0.01         0.01
  YS02001622YS02001625        3.34      3.34      4.27      0.01         0.01
  YS02001625YS02001629        3.25      3.25      4.27      0.01         0.01
  YS02163301YS02001633        4.52      4.52      4.73      0.01         0.01
  YS02163601YS02164001        4.69      4.69      4.89      0.01         0.01
  YS02164001YS02001641        4.69      4.69      4.76      0.01         0.01
  YS02001641YS02001644        4.76      4.76      4.78      0.01         0.19
  YS02001647YS02001649        4.23      4.23      4.91      0.01         0.01
  YS02001633YS02163601        4.64      4.64      4.89      0.01         0.01
  YS02001644YS02001647        4.23      4.23      4.78      0.01         0.01
  YS02001748YS02001751        1.56      1.56      3.42      0.01         0.01
  YS02001751YS02001754        3.42      3.42      4.11      0.01         0.01
  YS02001754YS02001757        4.25      4.25      5.26      0.01         0.01
  YS02001652YS02001649        4.28      4.28      4.91      0.01         0.01
  YS02001655YS02001652        3.52      3.52      4.20      0.01         0.01
  YS02001658YS02001655        0.21      0.21      3.52      0.01         0.01
  YS02001661YS02001658        0.01      0.01      0.21      0.01         0.01
  HS02004881HS02006253        0.01      0.01      0.16      0.01         0.01
  YS02001793JiankangQianchi        0.79      0.79      3.97      0.01         0.01
  YS02001757CaochengTiaoxuchi        2.95      2.95      5.26      0.01         0.01
  
  
  ***************
  Pumping Summary
  ***************
  
  ---------------------------------------------------------------------------------------------------------
                                                  Min       Avg       Max     Total     Power    % Time Off
                        Percent   Number of      Flow      Flow      Flow    Volume     Usage    Pump Curve
  Pump                 Utilized   Start-Ups       LPS       LPS       LPS  10^6 ltr     Kw-hr    Low   High
  ---------------------------------------------------------------------------------------------------------
  CC-Pump-1               17.02           2      0.00    128.19    200.00     0.600      0.99    0.0    0.0
  CC-Pump-2               10.64           2      0.00    107.50    200.00     0.360      0.67    0.0    0.0
  JK-Pump-1               36.17           4      0.00    160.11    300.00     1.692     29.01    0.0    0.0
  JK-Pump-2               25.54           3      0.00    185.22    683.00     1.563     28.11    0.0   96.7
  XR-Pump-1               85.09           6      0.00     81.67     95.00     1.995     38.65    0.0    0.0
  XR-Pump-2               78.71           6      0.00     81.17     95.00     1.824     35.54    0.0    0.0
  XR-Pump-3               76.58           6      0.00     81.13     95.00     1.767     34.69    0.0    0.0
  XR-Pump-4               76.58           6      0.00     81.13     95.00     1.767     34.69    0.0    0.0
  
  
  ***************************
  Link Pollutant Load Summary
  ***************************
  
  ------------------------------------------------------------------------------------------
                                 COD            SS            TN            TP         NH4-N
  Link                            kg            kg            kg            kg            kg
  ------------------------------------------------------------------------------------------
  WS02003066WSF200           211.973       352.461         9.424         1.003         5.445
  WS02006287WS02006284        99.212       167.049         6.117         0.713         3.682
  WS02006284WS02006280        99.637       167.732         6.157         0.718         3.707
  WS02006280WS02006229        99.618       167.700         6.155         0.718         3.706
  WS02006229WS02006228       214.088       355.598         9.415         0.998         5.429
  WS02006256WS02006235        54.062        88.396         1.757         0.164         0.964
  WS02006253WS02006251        13.250        23.220         0.409         0.037         0.219
  WS02006252WS02006251        52.280        84.626         1.293         0.099         0.651
  WS02006251WS02006249        63.024       103.804         1.647         0.132         0.844
  WS02006249WS02006248        61.508       101.339         1.607         0.128         0.823
  WS02006248WS02006247        61.654       101.589         1.611         0.129         0.826
  WS02006247WS02006245        61.633       101.560         1.607         0.128         0.823
  WS02006245WS02006243        61.512       101.399         1.597         0.127         0.817
  WS02006243WS02006242        62.657       103.353         1.622         0.129         0.829
  WS02006242WS02006240        64.528       106.482         1.677         0.134         0.859
  WS02006240WS02006239        66.930       110.407         1.754         0.141         0.901
  WS02006239WS02006238        70.191       115.635         1.871         0.152         0.967
  WS02006238WS02006235        72.490       119.311         1.945         0.159         1.007
  WS02006235WS02006234       115.496       189.592         3.334         0.289         1.769
  WS02006234WS02006232       115.656       189.842         3.343         0.290         1.774
  WS02006232WS02006231       115.517       189.615         3.337         0.289         1.771
  WS02006231WS02006230       115.323       189.304         3.325         0.288         1.764
  WS02006230WS02006229       115.302       189.243         3.327         0.288         1.765
  WS02006228WS02006109       213.269       354.299         9.329         0.987         5.375
  WS02006116WS02004401       218.099       362.332         9.685         1.030         5.594
  WS02006115WS02006116       218.983       363.741         9.749         1.038         5.633
  WS02006113WS02006111       219.614       364.458         9.934         1.062         5.753
  WS02006112WS02006115       219.834       365.120         9.816         1.046         5.674
  WS02006111WS02006112       219.006       363.485         9.880         1.056         5.720
  WS02006110WS02006113       219.953       365.007         9.963         1.066         5.771
  WS02006109WS02006110       221.086       366.832        10.065         1.079         5.835
  WS02004411WS02004412       213.764       355.391         9.510         1.013         5.494
  WS02004401WS02004402       217.137       360.780         9.619         1.022         5.553
  WS02004413WS02003067       212.172       352.765         9.429         1.004         5.447
  WS02004412WS02004413       213.088       354.302         9.482         1.010         5.478
  WS02004410WS02004411       214.121       355.961         9.523         1.014         5.502
  WS02004409WS02004410       214.464       356.517         9.540         1.016         5.511
  WS02004407WS02004409       214.523       356.597         9.538         1.015         5.510
  WS02004406WS02004407       214.310       356.231         9.522         1.013         5.500
  WS02004405WS02004406       215.485       358.137         9.590         1.021         5.541
  WS02004404WS02004405       216.074       359.056         9.595         1.021         5.542
  WS02004403WS02004404       215.488       358.125         9.518         1.011         5.493
  WS02004402WS02004403       216.305       359.448         9.568         1.017         5.523
  WS02004139WS02001211      1285.139      2057.911       121.322        15.121        75.693
  WS02004138WS02004139      1292.982      2070.472       122.056        15.212        76.150
  WS02003067WS02003066       211.992       352.496         9.426         1.004         5.446
  WS02001213WS02003059      1314.173      2104.337       124.152        15.476        77.464
  WS02001212WS02001213      1323.551      2119.353       125.036        15.586        78.016
  WS02001211WS02001212      1327.582      2125.807       125.415        15.633        78.252
  WS02003072WS02003073      1622.381      2610.741       142.871        17.642        88.721
  WS02003069WS02003072      1628.106      2619.942       143.408        17.709        89.056
  WS02003060WS02003069      1631.699      2625.702       143.739        17.750        89.262
  WS02003059WS02003060      1310.309      2098.149       123.775        15.428        77.228
  HS02004901HS02004770         2.130         3.767         0.042         0.003         0.019
  HS02004876HS02004881         8.765        15.635         0.280         0.025         0.150
  HS02004870HS02004876         6.852        12.151         0.251         0.024         0.138
  HS02004842HS02004848         1.220         2.098         0.028         0.002         0.013
  HS02004837HS02004842         5.861         9.499         0.494         0.061         0.305
  HS02004830HS02004837        47.760        77.368         4.217         0.522         2.622
  HS02004824HS02004830        48.510        78.569         4.289         0.531         2.667
  HS02004817HS02004824        53.251        86.989         4.417         0.540         2.733
  HS02004770HS02004777         8.330        14.869         0.185         0.012         0.084
  HS02004799HS02004480        38.770        66.014         1.878         0.206         1.089
  HS02004792HS02004799        36.483        61.633         1.882         0.210         1.101
  HS02004788HS02004792        24.641        41.499         1.505         0.173         0.898
  HS02004785HS02004788         9.822        17.268         0.337         0.031         0.179
  HS02004777HS02004785         9.318        16.456         0.291         0.026         0.151
  HS02004480HS02004478        45.449        78.292         1.947         0.208         1.114
  HS02004479HS02004480        11.118        19.360         0.492         0.055         0.288
  HS02004862HS02004870         5.188         9.001         0.216         0.022         0.121
  HS02004848HS02004852         1.326         2.294         0.030         0.002         0.014
  HS02004856HS02004862         2.649         4.776         0.056         0.004         0.026
  HS02004852HS02004856         1.323         2.289         0.030         0.002         0.013
  HS02004802HS02004478        54.063        89.242         4.197         0.509         2.585
  HS02004478WS02006287        99.390       167.338         6.133         0.715         3.692
  HS02004817HS02004807        51.874        84.787         4.286         0.524         2.651
  HS02004807HS02004802        54.793        90.409         4.268         0.517         2.629
  YS02001759YS02001757        78.856       128.648         1.941         0.144         0.988
  YS02001762YS02001759        42.354        69.731         1.196         0.096         0.628
  YS02001765YS02001762        42.039        69.143         1.215         0.099         0.641
  YS02001770YS02001767        39.880        65.594         0.930         0.061         0.459
  YS02001774YS02001770         4.573         7.585         0.119         0.009         0.061
  YS02001779YS02001774         3.687         6.055         0.169         0.018         0.098
  YS02001649YS02001757       115.586       182.744         2.764         0.210         1.360
  YS02001767YS02001765        42.256        69.444         1.236         0.101         0.654
  YS02006561YS02001783       175.795       285.268         5.552         0.507         3.023
  YS02001783YS02001784       175.728       285.170         5.548         0.507         3.021
  YS02001784YS02001785       183.102       296.981         6.261         0.596         3.467
  YS02001788YS02001790       183.773       298.076         6.334         0.605         3.512
  YS02001790YS02001791       184.653       299.513         6.423         0.617         3.569
  YS02001791YS02001793       184.220       298.856         6.397         0.614         3.553
  YS02001910YS02001907        65.349       104.814         3.042         0.314         1.758
  YS02001786YS02001788       183.343       297.377         6.289         0.600         3.485
  YS02001915YS02001910        65.239       104.584         3.001         0.308         1.731
  YS02001918YS02001915        37.415        58.562         2.349         0.273         1.419
  YS02001923YS02001920        17.383        26.502         0.412         0.030         0.208
  YS02001926YS02001923        17.007        25.895         0.373         0.026         0.183
  YS02001929YS02001926        16.715        25.418         0.341         0.021         0.163
  YS02001920YS02001918        37.328        58.422         2.330         0.270         1.407
  YS02001629YS02163301        19.099        30.355         0.445         0.027         0.205
  YS02001619YS02001622        22.091        34.873         0.517         0.031         0.237
  YS02001622YS02001625        21.173        33.522         0.493         0.030         0.226
  YS02001625YS02001629        20.129        31.982         0.468         0.029         0.215
  YS02163301YS02001633        18.819        29.923         0.438         0.027         0.203
  YS02163601YS02164001        54.830        86.359         1.293         0.095         0.634
  YS02164001YS02001641        54.343        85.594         1.269         0.093         0.621
  YS02001641YS02001644        54.571        85.963         1.264         0.092         0.617
  YS02001647YS02001649        87.311       137.091         1.909         0.136         0.922
  YS02006553YS02006556       129.291       209.279         4.415         0.422         2.452
  YS02006556YS02006558       129.242       209.182         4.383         0.418         2.431
  YSB6556YSB1171               5.445         9.594         0.180         0.019         0.102
  YS02001907YS02006553       129.223       209.178         4.410         0.422         2.449
  YS02006558YS02006561       175.805       285.276         5.551         0.507         3.023
  YS02001633YS02163601        55.429        87.220         1.276         0.092         0.621
  YS02001644YS02001647        88.070       138.191         1.927         0.138         0.931
  YS02001745YS02001748        30.801        49.820         0.683         0.038         0.326
  YS02001748YS02001751        32.354        52.400         0.871         0.063         0.445
  YS02001751YS02001754        31.993        51.859         0.946         0.075         0.498
  YS02001754YS02001757        32.968        53.453         1.113         0.097         0.605
  YS02001882YS02001884         0.414         0.638         0.014         0.001         0.008
  YS02001884YS02001887         1.599         2.548         0.047         0.004         0.026
  YS02001890YS02001895        64.880       105.794         1.393         0.110         0.704
  YS02001895YS02001898        64.754       105.613         1.387         0.109         0.700
  YS02001898YS02001901        64.650       105.467         1.385         0.109         0.699
  YS02001901YS02001904        64.740       105.644         1.406         0.112         0.713
  YS02001904YS02001907        65.546       106.980         1.502         0.124         0.773
  YS02001887YS02001890        65.722       107.094         1.458         0.118         0.743
  YS02001652YS02001649        30.131        48.475         0.886         0.075         0.450
  YS02001655YS02001652        31.044        49.870         0.913         0.077         0.463
  YS02001658YS02001655        29.935        47.995         0.722         0.052         0.339
  YS02001661YS02001658        29.810        47.673         0.670         0.044         0.303
  YS02001664YS02001661        30.088        48.010         0.679         0.045         0.307
  YSB1154YSB6556               4.931         8.777         0.117         0.010         0.061
  YSB1174YSB1171               3.785         6.751         0.127         0.013         0.071
  YSB1171HS02004479           11.005        19.190         0.480         0.053         0.281
  HS02004881HS02006253         9.832        17.618         0.299         0.026         0.159
  YS02001793JiankangQianchi       184.108       298.739         6.377         0.611         3.540
  YS02001757CaochengTiaoxuchi       221.043       355.344         5.456         0.412         2.739
  WSF200WS02003060           211.883       352.349         9.424         1.003         5.445
  1                         1625.693      2616.128       143.214        17.685        88.937
  CC-Pump-1                   32.560        52.724         0.795         0.060         0.399
  CC-Pump-2                   19.456        31.480         0.475         0.036         0.239
  JK-Pump-1                   56.358        92.114         1.786         0.165         0.975
  JK-Pump-2                   64.349       105.341         2.156         0.205         1.191
  XR-Pump-1                  354.408       567.534        33.439         4.167        20.861
  XR-Pump-2                  321.416       514.694        30.339         3.781        18.928
  XR-Pump-3                  310.503       497.204        29.320         3.655        18.294
  XR-Pump-4                  310.503       497.204        29.320         3.655        18.294
  

  Analysis begun on:  Sat Jul 10 22:51:59 2021
  Analysis ended on:  Sat Jul 10 22:52:01 2021
  Total elapsed time: 00:00:02