
  EPA STORM WATER MANAGEMENT MODEL - VERSION 5.1 (Build 5.3.0.dev0)
  --------------------------------------------------------------

  WARNING 04: minimum elevation drop used for Conduit WS02004404WS02004405
  WARNING 03: negative offset ignored for Link YS02001904YS02001907
  
  *********************************************************
  NOTE: The summary statistics displayed in this report are
  based on results found at every computational time step,  
  not just on results from each reporting time step.
  *********************************************************
  
  ****************
  Analysis Options
  ****************
  Flow Units ............... LPS
  Process Models:
    Rainfall/Runoff ........ YES
    RDII ................... NO
    Snowmelt ............... NO
    Groundwater ............ NO
    Flow Routing ........... YES
    Ponding Allowed ........ NO
    Water Quality .......... YES
  Infiltration Method ...... HORTON
  Flow Routing Method ...... DYNWAVE
  Surcharge Method ......... EXTRAN
  Starting Date ............ 08/28/2015 08:00:00
  Ending Date .............. 08/28/2015 16:00:00
  Antecedent Dry Days ...... 8.0
  Report Time Step ......... 00:01:00
  Wet Time Step ............ 00:01:00
  Dry Time Step ............ 00:01:00
  Routing Time Step ........ 5.00 sec
  Variable Time Step ....... YES
  Maximum Trials ........... 8
  Number of Threads ........ 4
  Head Tolerance ........... 0.001500 m
  
  
  **************************        Volume         Depth
  Runoff Quantity Continuity     hectare-m            mm
  **************************     ---------       -------
  Total Precipitation ......         2.901         6.352
  Evaporation Loss .........         0.000         0.000
  Infiltration Loss ........         0.618         1.354
  Surface Runoff ...........         1.728         3.784
  Final Storage ............         0.555         1.215
  Continuity Error (%) .....        -0.020
  
  
  **************************           COD            SS            TN            TP         NH4-N
  Runoff Quality Continuity             kg            kg            kg            kg            kg
  **************************    ----------    ----------    ----------    ----------    ----------
  Initial Buildup ..........     41378.656     70582.865      1804.177       168.684      1032.807
  Surface Buildup ..........        12.395        16.998         2.239         0.207         1.322
  Wet Deposition ...........         0.000         0.000         0.000         0.000         0.000
  Sweeping Removal .........         0.000         0.000         0.000         0.000         0.000
  Infiltration Loss ........        30.657        53.419         0.610         0.041         0.286
  BMP Removal ..............         0.000         0.000         0.000         0.000         0.000
  Surface Runoff ...........      1023.367      1738.349        20.776         1.346         9.790
  Remaining Buildup ........     40336.730     68807.591      1785.024       167.504      1024.050
  Continuity Error (%) .....         0.001         0.001         0.000         0.000         0.000
  
  
  **************************        Volume        Volume
  Flow Routing Continuity        hectare-m      10^6 ltr
  **************************     ---------     ---------
  Dry Weather Inflow .......         0.630         6.296
  Wet Weather Inflow .......         1.728        17.277
  Groundwater Inflow .......         0.000         0.000
  RDII Inflow ..............         0.000         0.000
  External Inflow ..........         0.105         1.045
  External Outflow .........         1.301        13.011
  Flooding Loss ............         0.607         6.070
  Evaporation Loss .........         0.000         0.000
  Exfiltration Loss ........         0.000         0.000
  Initial Stored Volume ....         0.076         0.761
  Final Stored Volume ......         0.630         6.302
  Continuity Error (%) .....        -0.018
  
  
  **************************           COD            SS            TN            TP         NH4-N
  Quality Routing Continuity            kg            kg            kg            kg            kg
  **************************    ----------    ----------    ----------    ----------    ----------
  Dry Weather Inflow .......      1573.993      2518.389       151.103        18.888        94.440
  Wet Weather Inflow .......      1023.150      1738.027        20.770         1.345         9.788
  Groundwater Inflow .......         0.000         0.000         0.000         0.000         0.000
  RDII Inflow ..............         0.000         0.000         0.000         0.000         0.000
  External Inflow ..........       187.321       299.713        17.983         2.248        11.239
  External Outflow .........      1797.818      2926.982       144.224        17.575        88.954
  Flooding Loss ............       425.905       702.986        16.916         1.724         9.595
  Exfiltration Loss ........         0.000         0.000         0.000         0.000         0.000
  Mass Reacted .............         0.000         0.000         0.000         0.000         0.000
  Initial Stored Mass ......         0.000         0.000         0.000         0.000         0.000
  Final Stored Mass ........       553.877       914.623        28.921         3.224        17.087
  Continuity Error (%) .....         0.247         0.253        -0.108        -0.184        -0.146
  
  
  *************************
  Highest Continuity Errors
  *************************
  Node HS02004842 (22.13%)
  Node YS02001884 (18.76%)
  Node YS02001774 (16.83%)
  Node YSB1171 (5.23%)
  Node HS02004817 (4.04%)
  
  
  ***************************
  Time-Step Critical Elements
  ***************************
  Link WS02006238WS02006235 (35.43%)
  Link WS02006280WS02006229 (32.01%)
  Link WS02003066WSF200 (13.01%)
  Link YS02001791YS02001793 (3.48%)
  Link WS02006229WS02006228 (2.18%)
  
  
  ********************************
  Highest Flow Instability Indexes
  ********************************
  Link WS02006113WS02006111 (66)
  Link YS02163601YS02164001 (27)
  Link YS02163301YS02001633 (26)
  Link YS02001629YS02163301 (26)
  Link YS02001619YS02001622 (25)
  
  
  *************************
  Routing Time Step Summary
  *************************
  Minimum Time Step           :     0.50 sec
  Average Time Step           :     3.04 sec
  Maximum Time Step           :     5.00 sec
  Percent in Steady State     :     0.00
  Average Iterations per Step :     3.54
  Percent Not Converging      :    12.28
  
  
  ***************************
  Subcatchment Runoff Summary
  ***************************
  
  ------------------------------------------------------------------------------------------------------------------------------
                            Total      Total      Total      Total     Imperv       Perv      Total       Total     Peak  Runoff
                           Precip      Runon       Evap      Infil     Runoff     Runoff     Runoff      Runoff   Runoff   Coeff
  Subcatchment                 mm         mm         mm         mm         mm         mm         mm    10^6 ltr      LPS
  ------------------------------------------------------------------------------------------------------------------------------
  sub0                       6.35       0.00       0.00       0.44       5.86       0.00       5.86        0.00     0.78   0.923
  sub1                       6.35       0.00       0.00       0.70       5.57       0.00       5.57        0.04     5.62   0.876
  sub2                       6.35       0.00       0.00       2.35       3.92       0.00       3.92        0.04     5.42   0.618
  sub3                       6.35       0.00       0.00       2.35       3.89       0.00       3.89        0.09    12.41   0.612
  sub4                       6.35       0.00       0.00       0.70       5.43       0.00       5.43        0.11    15.14   0.854
  sub5                       6.35       0.00       0.00       0.44       5.82       0.00       5.82        0.07    10.01   0.916
  sub7                       6.35       0.00       0.00       0.57       5.72       0.00       5.72        0.02     3.02   0.901
  sub8                       6.35       0.00       0.00       0.57       5.71       0.00       5.71        0.04     5.65   0.899
  sub9                       6.35       0.00       0.00       0.57       5.71       0.00       5.71        0.03     4.24   0.899
  sub10                      6.35       0.00       0.00       0.51       5.76       0.00       5.76        0.06     9.71   0.907
  sub11                      6.35       0.00       0.00       0.51       5.78       0.00       5.78        0.07    10.43   0.909
  sub12                      6.35       0.00       0.00       0.83       5.48       0.00       5.48        0.05     7.62   0.863
  sub14                      6.35       0.00       0.00       0.57       5.71       0.00       5.71        0.05     8.38   0.898
  sub15                      6.35       0.00       0.00       1.91       4.39       0.00       4.39        0.08    11.59   0.691
  sub16                      6.35       0.00       0.00       2.10       4.22       0.00       4.22        0.04     6.98   0.664
  sub17                      6.35       0.00       0.00       2.03       4.28       0.00       4.28        0.04     5.78   0.673
  sub22                      6.35       0.00       0.00       2.73       3.58       0.00       3.58        0.23    35.24   0.564
  sub23                      6.35       0.00       0.00       2.35       3.96       0.00       3.96        0.19    29.51   0.623
  sub60                      6.35       0.00       0.00       0.76       4.17       0.00       4.17        1.27   118.99   0.657
  sub61                      6.35       0.00       0.00       1.08       4.36       0.00       4.36        1.34   142.56   0.687
  sub62                      6.35       0.00       0.00       0.51       4.71       0.00       4.71        1.45   148.28   0.741
  sub63                      6.35       0.00       0.00       1.84       3.85       0.00       3.85        1.17   129.12   0.606
  sub64                      6.35       0.00       0.00       0.95       4.00       0.00       4.00        1.21   113.25   0.629
  sub65                      6.35       0.00       0.00       0.83       4.05       0.00       4.05        1.25   115.13   0.638
  sub66                      6.35       0.00       0.00       1.84       3.46       0.00       3.46        1.06   102.81   0.545
  sub67                      6.35       0.00       0.00       0.51       5.08       0.00       5.08        1.57   177.67   0.799
  sub68                      6.35       0.00       0.00       0.89       4.61       0.00       4.61        1.42   154.75   0.726
  sub69                      6.35       0.00       0.00       0.95       4.89       0.00       4.89        1.14   137.55   0.769
  sub70                      6.35       4.99       0.00       3.85       6.25       0.00       6.26        1.43   135.16   0.552
  sub71                      6.35       0.00       0.00       0.51       4.54       0.00       4.54        1.07   105.24   0.715
  sub72                      6.35       0.00       0.00       0.44       3.38       0.00       3.38        0.69    52.30   0.532
  1                          6.35       6.09       0.00       1.40       6.58       1.15       7.73        1.82   134.35   0.622
  2                          6.35       0.00       0.00       3.09       1.46       0.39       1.86        0.74    85.38   0.292
  
  
  ****************************
  Subcatchment Washoff Summary
  ****************************
  
  ------------------------------------------------------------------------------------------
                                 COD            SS            TN            TP         NH4-N
  Subcatchment                    kg            kg            kg            kg            kg
  ------------------------------------------------------------------------------------------
  sub0                         0.807         1.443         0.013         0.001         0.006
  sub1                         3.441         6.298         0.065         0.004         0.031
  sub2                         2.007         3.548         0.046         0.003         0.021
  sub3                         4.937         8.646         0.110         0.007         0.050
  sub4                         8.016        14.752         0.167         0.010         0.080
  sub5                         7.865        14.203         0.139         0.010         0.067
  sub7                         1.800         3.351         0.035         0.002         0.017
  sub8                         2.764         5.256         0.057         0.003         0.027
  sub9                         2.328         4.367         0.046         0.003         0.022
  sub10                        6.544        11.976         0.121         0.008         0.058
  sub11                        6.465        11.981         0.123         0.008         0.059
  sub12                        5.291         9.606         0.096         0.007         0.046
  sub14                        4.923         9.147         0.095         0.006         0.046
  sub15                        5.731        10.136         0.115         0.008         0.053
  sub16                        3.575         6.303         0.070         0.005         0.033
  sub17                        3.261         5.693         0.062         0.005         0.029
  sub22                       16.662        28.755         0.331         0.024         0.152
  sub23                       10.430        18.730         0.240         0.015         0.108
  sub60                       67.613       114.809         1.435         0.083         0.685
  sub61                       84.047       141.975         1.630         0.106         0.781
  sub62                       89.177       153.548         1.837         0.110         0.878
  sub63                       62.469       104.075         1.347         0.091         0.614
  sub64                       80.743       131.956         1.545         0.108         0.731
  sub65                       82.892       136.085         1.599         0.109         0.759
  sub66                       48.384        79.910         1.078         0.067         0.497
  sub67                      131.258       223.843         2.390         0.169         1.150
  sub68                       94.035       160.705         1.888         0.121         0.896
  sub69                       85.909       148.619         1.671         0.112         0.792
  sub70                      134.577       233.592         2.832         0.188         1.307
  sub71                       59.416       103.200         1.309         0.071         0.623
  sub72                       40.744        65.519         0.799         0.052         0.383
  1                           74.997       131.068         1.634         0.109         0.742
  2                           10.744        17.466         0.352         0.021         0.147
  ------------------------------------------------------------------------------------------
  System                    1243.854      2120.560        25.279         1.645        11.890
  
  
  ******************
  Node Depth Summary
  ******************
  
  ---------------------------------------------------------------------------------
                                 Average  Maximum  Maximum  Time of Max    Reported
                                   Depth    Depth      HGL   Occurrence   Max Depth
  Node                 Type       Meters   Meters   Meters  days hr:min      Meters
  ---------------------------------------------------------------------------------
  WS02001211           JUNCTION     0.68     0.71     5.55     0  02:45        0.71
  WS02001212           JUNCTION     0.39     0.43     5.50     0  02:44        0.43
  WS02001213           JUNCTION     0.61     0.68     5.44     0  02:43        0.68
  WS02003069           JUNCTION     0.39     0.51     5.10     0  02:42        0.51
  WS02003072           JUNCTION     0.46     0.57     4.95     0  02:43        0.57
  WS02003073           JUNCTION     0.27     0.35     4.41     0  02:43        0.35
  WS02003060           JUNCTION     0.35     0.45     5.38     0  02:41        0.45
  WS02003066           JUNCTION     0.17     0.27     5.83     0  02:39        0.27
  WS02003059           JUNCTION     0.66     0.74     5.43     0  02:42        0.74
  WS02003067           JUNCTION     0.44     0.66     5.98     0  02:39        0.66
  WS02004401           JUNCTION     0.53     0.78     6.78     0  02:35        0.78
  WS02004402           JUNCTION     0.56     0.81     6.77     0  02:35        0.81
  WS02004403           JUNCTION     0.58     0.82     6.75     0  02:36        0.82
  WS02004404           JUNCTION     0.65     0.90     6.75     0  02:36        0.90
  WS02004406           JUNCTION     0.67     0.90     6.73     0  02:36        0.90
  WS02004409           JUNCTION     0.36     0.60     6.37     0  02:38        0.60
  WS02004410           JUNCTION     0.37     0.62     6.34     0  02:38        0.62
  WS02004411           JUNCTION     0.39     0.63     6.31     0  02:39        0.63
  WS02004412           JUNCTION     0.41     0.64     6.28     0  02:39        0.64
  WS02004413           JUNCTION     0.55     0.80     6.27     0  02:39        0.80
  WS02004405           JUNCTION     0.65     0.89     6.74     0  02:36        0.89
  WS02006109           JUNCTION     0.62     0.86     7.48     0  02:32        0.86
  WS02006110           JUNCTION     0.63     0.84     7.43     0  02:32        0.84
  WS02006111           JUNCTION     0.17     0.26     6.96     0  02:32        0.26
  WS02006112           JUNCTION     0.69     0.96     6.84     0  02:34        0.96
  WS02006113           JUNCTION     0.25     0.40     7.30     0  02:34        0.40
  WS02006115           JUNCTION     0.43     0.67     6.81     0  02:35        0.67
  WS02006116           JUNCTION     0.50     0.75     6.79     0  02:35        0.75
  WS02006230           JUNCTION     0.54     0.85     7.59     0  02:33        0.85
  WS02006231           JUNCTION     0.32     0.53     7.65     0  02:34        0.53
  WS02006232           JUNCTION     0.42     0.65     7.69     0  02:35        0.65
  WS02006234           JUNCTION     0.34     0.56     7.72     0  02:35        0.56
  WS02006235           JUNCTION     0.36     0.59     7.75     0  02:36        0.59
  WS02006238           JUNCTION     0.38     0.61     7.75     0  02:36        0.61
  WS02006240           JUNCTION     0.26     0.46     7.75     0  02:36        0.46
  WS02006242           JUNCTION     0.29     0.48     7.75     0  02:35        0.48
  WS02006243           JUNCTION     0.17     0.33     7.75     0  02:36        0.33
  WS02006245           JUNCTION     0.14     0.27     7.75     0  02:36        0.27
  WS02006247           JUNCTION     0.13     0.26     7.76     0  02:35        0.26
  WS02006248           JUNCTION     0.08     0.17     7.76     0  02:36        0.17
  WS02006249           JUNCTION     0.09     0.18     7.78     0  02:34        0.18
  WS02006239           JUNCTION     0.32     0.54     7.75     0  02:36        0.54
  WS02006251           JUNCTION     0.07     0.14     7.81     0  02:28        0.14
  WS02006252           JUNCTION     0.00     0.00     8.24     0  00:00        0.00
  WS02006253           JUNCTION     0.11     0.20     7.84     0  02:27        0.20
  WS02006256           JUNCTION     1.49     2.35     9.28     0  01:50        2.35
  WS02004138           JUNCTION     0.16     0.17     7.42     0  04:34        0.17
  WS02004139           JUNCTION     0.62     0.65     5.56     0  02:45        0.65
  WS02004407           JUNCTION     0.16     0.27     6.58     0  02:36        0.27
  WS02006228           JUNCTION     0.60     0.87     7.53     0  02:32        0.87
  WS02006229           JUNCTION     0.57     0.86     7.55     0  02:32        0.86
  WS02006280           JUNCTION     0.06     0.13     8.40     0  02:27        0.13
  WS02006284           JUNCTION     0.36     0.45     8.85     0  02:27        0.45
  WS02006287           JUNCTION     0.09     0.18     9.14     0  02:27        0.18
  WSF200               JUNCTION     0.15     0.27     5.50     0  02:39        0.27
  HS02004901           JUNCTION     0.12     0.20    10.02     0  02:25        0.20
  HS02004881           JUNCTION     0.01     0.02     9.05     0  02:26        0.02
  HS02004876           JUNCTION     0.05     0.09     9.12     0  02:25        0.09
  HS02004870           JUNCTION     0.01     0.03     9.32     0  02:26        0.03
  HS02004862           JUNCTION     0.02     0.04     9.43     0  02:26        0.04
  HS02004856           JUNCTION     0.07     0.10     9.53     0  02:26        0.10
  HS02004852           JUNCTION     0.01     0.02     9.54     0  02:27        0.02
  HS02004848           JUNCTION     0.01     0.02     9.62     0  02:25        0.02
  HS02004842           JUNCTION     0.33     0.35     9.62     0  02:25        0.35
  HS02004837           JUNCTION     0.03     0.04     9.62     0  02:25        0.04
  HS02004830           JUNCTION     0.04     0.06     9.53     0  02:26        0.06
  HS02004824           JUNCTION     0.02     0.04     9.44     0  02:27        0.04
  HS02004817           JUNCTION     0.42     0.51     9.35     0  02:27        0.51
  HS02004807           JUNCTION     0.12     0.18     9.35     0  02:27        0.18
  HS02004802           JUNCTION     0.15     0.22     9.35     0  02:27        0.22
  HS02004799           JUNCTION     0.12     0.22     9.43     0  02:25        0.22
  HS02004792           JUNCTION     0.03     0.08     9.60     0  02:25        0.08
  HS02004788           JUNCTION     0.02     0.06     9.96     0  02:26        0.06
  HS02004785           JUNCTION     0.05     0.11    10.01     0  02:26        0.11
  HS02004777           JUNCTION     0.14     0.22    10.02     0  02:25        0.22
  HS02004770           JUNCTION     0.11     0.19    10.02     0  02:25        0.19
  HS02004480           JUNCTION     0.08     0.17     9.41     0  02:26        0.17
  HS02004479           JUNCTION     0.11     0.20     9.41     0  02:26        0.20
  HS02004478           JUNCTION     0.06     0.11     9.33     0  02:27        0.11
  YS02001745           JUNCTION     0.52     0.86     8.38     0  03:45        0.86
  YS02001748           JUNCTION     0.84     1.30     8.38     0  03:45        1.30
  YS02001751           JUNCTION     1.00     1.51     8.39     0  03:45        1.50
  YS02001754           JUNCTION     1.24     1.78     8.39     0  03:43        1.77
  YS02001762           JUNCTION     1.43     1.99     8.39     0  03:47        1.98
  YS02001765           JUNCTION     1.38     1.94     8.39     0  03:44        1.93
  YS02001767           JUNCTION     1.35     1.90     8.39     0  03:44        1.89
  YS02001770           JUNCTION     1.34     1.88     8.38     0  03:30        1.88
  YS02001774           JUNCTION     1.41     1.96     8.38     0  03:54        1.95
  YS02001779           JUNCTION     1.17     1.68     8.37     0  03:25        1.68
  YS02001882           JUNCTION     0.32     0.56     7.28     0  03:02        0.56
  YS02001884           JUNCTION     0.41     0.66     7.28     0  03:02        0.66
  YS02001759           JUNCTION     1.46     2.03     8.39     0  03:46        2.02
  YS02001887           JUNCTION     0.49     0.74     7.28     0  03:03        0.74
  YS02001890           JUNCTION     0.52     0.77     7.28     0  03:03        0.77
  YS02001898           JUNCTION     0.29     0.53     7.26     0  03:02        0.53
  YS02001901           JUNCTION     0.40     0.65     7.26     0  03:02        0.65
  YS02001904           JUNCTION     0.38     0.63     7.26     0  03:03        0.63
  YS02001907           JUNCTION     0.70     0.97     7.26     0  03:03        0.97
  YS02001910           JUNCTION     0.50     0.75     7.26     0  03:03        0.75
  YS02001915           JUNCTION     0.30     0.54     7.26     0  03:03        0.54
  YS02001918           JUNCTION     0.09     0.19     7.26     0  03:03        0.19
  YS02001619           JUNCTION     0.97     1.46     8.39     0  03:31        1.44
  YS02001629           JUNCTION     1.29     1.83     8.38     0  03:33        1.81
  YS02001641           JUNCTION     1.39     1.93     8.36     0  03:32        1.92
  YS02001644           JUNCTION     1.40     1.92     8.35     0  03:31        1.92
  YS02001652           JUNCTION     1.25     1.80     8.39     0  03:47        1.79
  YS02001655           JUNCTION     1.03     1.55     8.40     0  03:40        1.55
  YS02001920           JUNCTION     0.19     0.27     7.28     0  03:03        0.27
  YS02001923           JUNCTION     0.07     0.11     7.37     0  03:02        0.11
  YS02001926           JUNCTION     0.15     0.21     7.66     0  03:02        0.21
  YS02001929           JUNCTION     0.07     0.11     7.80     0  03:01        0.11
  YS02001658           JUNCTION     0.79     1.26     8.41     0  03:41        1.26
  YS02001661           JUNCTION     0.62     1.01     8.41     0  03:42        1.00
  YS02001664           JUNCTION     0.27     0.49     8.41     0  03:41        0.49
  YS02001622           JUNCTION     0.99     1.49     8.39     0  03:31        1.47
  YS02001633           JUNCTION     1.38     1.92     8.38     0  03:33        1.91
  YS02001649           JUNCTION     1.43     2.00     8.39     0  03:42        1.99
  YS02001757           JUNCTION     1.55     2.13     8.39     0  03:52        2.12
  YS02001895           JUNCTION     0.28     0.52     7.27     0  03:02        0.52
  YS02001625           JUNCTION     1.26     1.78     8.38     0  03:32        1.76
  YS02163301           JUNCTION     1.32     1.86     8.38     0  03:32        1.85
  YS02163601           JUNCTION     1.43     1.97     8.37     0  03:35        1.96
  YS02164001           JUNCTION     1.37     1.91     8.36     0  03:40        1.90
  YS02001647           JUNCTION     1.23     1.76     8.37     0  03:51        1.76
  YSB1154              JUNCTION     0.25     0.35     9.41     0  02:26        0.35
  YSB6556              JUNCTION     0.14     0.24     9.41     0  02:26        0.24
  YSB1174              JUNCTION     0.20     0.30     9.41     0  02:26        0.30
  YSB1171              JUNCTION     0.40     0.50     9.41     0  02:26        0.50
  YS02006553           JUNCTION     0.71     0.97     7.26     0  03:03        0.97
  YS02006561           JUNCTION     0.16     0.28     6.94     0  03:03        0.28
  YS02006556           JUNCTION     0.68     0.94     7.25     0  03:03        0.94
  YS02006558           JUNCTION     0.72     0.99     7.25     0  03:03        0.98
  YS02001783           JUNCTION     0.27     0.50     6.64     0  03:03        0.50
  YS02001784           JUNCTION     0.30     0.52     6.59     0  03:03        0.52
  YS02001786           JUNCTION     0.26     0.44     6.47     0  03:04        0.44
  YS02001788           JUNCTION     0.19     0.34     6.32     0  03:04        0.34
  YS02001790           JUNCTION     0.23     0.41     6.06     0  03:04        0.41
  YS02001791           JUNCTION     0.15     0.25     5.72     0  03:04        0.25
  YS02001793           JUNCTION     0.28     0.95     5.79     0  02:52        0.91
  WSC                  OUTFALL      0.27     0.35     1.02     0  02:44        0.35
  JK-storage           STORAGE      4.03     4.88     5.68     0  03:09        4.86
  CC-storage           STORAGE      0.85     1.38     8.38     0  03:45        1.38
  XR-storage           STORAGE      7.27     7.72     5.72     0  02:35        7.72
  
  
  *******************
  Node Inflow Summary
  *******************
  
  -------------------------------------------------------------------------------------------------
                                  Maximum  Maximum                  Lateral       Total        Flow
                                  Lateral    Total  Time of Max      Inflow      Inflow     Balance
                                   Inflow   Inflow   Occurrence      Volume      Volume       Error
  Node                 Type           LPS      LPS  days hr:min    10^6 ltr    10^6 ltr     Percent
  -------------------------------------------------------------------------------------------------
  WS02001211           JUNCTION      7.35   294.00     0  01:36       0.212        7.65       0.419
  WS02001212           JUNCTION      0.00   294.64     0  04:44           0        7.62       0.206
  WS02001213           JUNCTION      0.00   295.71     0  04:44           0        7.61       0.241
  WS02003069           JUNCTION      0.32   749.84     0  02:42     0.00922          13       0.137
  WS02003072           JUNCTION      0.00   749.84     0  02:42           0          13       0.185
  WS02003073           JUNCTION      1.82   751.66     0  02:43      0.0524          13       0.202
  WS02003060           JUNCTION     16.53   749.51     0  02:41       0.476          13       0.130
  WS02003066           JUNCTION      0.00   441.00     0  02:39           0        5.01       0.043
  WS02003059           JUNCTION      0.00   297.82     0  04:43           0        7.59       0.430
  WS02003067           JUNCTION      0.00   441.00     0  02:39           0        5.01       0.107
  WS02004401           JUNCTION      0.00   441.82     0  02:35           0        5.14       0.234
  WS02004402           JUNCTION      0.00   441.70     0  02:35           0        5.13       0.234
  WS02004403           JUNCTION      0.00   441.68     0  02:36           0        5.12       0.224
  WS02004404           JUNCTION      0.16   441.79     0  02:36     0.00467        5.11       0.207
  WS02004406           JUNCTION      0.00   441.85     0  02:36           0        5.09       0.448
  WS02004409           JUNCTION      0.00   441.69     0  02:36           0        5.06       0.104
  WS02004410           JUNCTION      0.00   441.46     0  02:37           0        5.06       0.146
  WS02004411           JUNCTION      0.00   441.27     0  02:37           0        5.05       0.169
  WS02004412           JUNCTION      0.00   441.14     0  02:38           0        5.04       0.209
  WS02004413           JUNCTION      0.00   441.06     0  02:38           0        5.03       0.349
  WS02004405           JUNCTION      0.04   441.83     0  02:36      0.0011         5.1       0.254
  WS02006109           JUNCTION      1.23   437.23     0  02:32      0.0354        5.17       0.239
  WS02006110           JUNCTION      0.00   437.24     0  02:32           0        5.16       0.257
  WS02006111           JUNCTION      0.00   449.91     0  02:34           0        5.14       0.021
  WS02006112           JUNCTION      5.78   443.59     0  02:32      0.0367        5.17       0.321
  WS02006113           JUNCTION      0.00   437.36     0  02:32           0        5.14       0.082
  WS02006115           JUNCTION      0.00   442.20     0  02:33           0        5.16       0.197
  WS02006116           JUNCTION      0.00   441.93     0  02:35           0        5.15       0.159
  WS02006230           JUNCTION     10.28   286.88     0  03:10       0.296        3.97       0.199
  WS02006231           JUNCTION      0.00   275.44     0  03:10           0        3.68       0.144
  WS02006232           JUNCTION      0.00   275.15     0  02:41           0        3.69       0.394
  WS02006234           JUNCTION      0.00   275.00     0  02:41           0        3.69       0.020
  WS02006235           JUNCTION      0.00   335.97     0  02:10           0        4.07       0.270
  WS02006238           JUNCTION      0.00   210.41     0  02:10           0       0.844       0.577
  WS02006240           JUNCTION      0.00   109.40     0  02:11           0       0.573       1.138
  WS02006242           JUNCTION      0.00    98.23     0  02:11           0       0.428       1.679
  WS02006243           JUNCTION      0.00    66.42     0  02:12           0       0.314       2.108
  WS02006245           JUNCTION      0.00    39.12     0  02:07           0       0.256       1.427
  WS02006247           JUNCTION      0.00    31.67     0  02:07           0       0.227       0.176
  WS02006248           JUNCTION      0.00    30.88     0  02:27           0       0.212       0.068
  WS02006249           JUNCTION      0.00    31.24     0  02:27           0       0.209       0.234
  WS02006239           JUNCTION      0.00   126.91     0  01:51           0        0.72       0.925
  WS02006251           JUNCTION      0.08    31.38     0  02:26     0.00222       0.209      -0.026
  WS02006252           JUNCTION      0.00     0.00     0  00:00           0           0       0.000 ltr
  WS02006253           JUNCTION      0.78    31.33     0  02:26     0.00475       0.207       0.159
  WS02006256           JUNCTION      0.00   983.00     0  02:31           0        4.76      -0.194
  WS02004138           JUNCTION      0.00   285.00     0  01:35           0        7.47       0.044
  WS02004139           JUNCTION      0.32   285.32     0  01:38     0.00924        7.47       0.406
  WS02004407           JUNCTION      0.00   441.73     0  02:36           0        5.06       0.045
  WS02006228           JUNCTION      0.00   436.00     0  02:32           0        5.14       0.195
  WS02006229           JUNCTION      0.00   436.01     0  02:31           0        5.15       0.212
  WS02006280           JUNCTION      0.00   157.44     0  02:27           0        1.19       0.006
  WS02006284           JUNCTION      0.10   157.44     0  02:27     0.00275        1.19       0.075
  WS02006287           JUNCTION      0.00   157.35     0  02:27           0        1.19       0.058
  WSF200               JUNCTION      0.00   441.00     0  02:39           0           5       0.033
  HS02004901           JUNCTION      6.98     6.98     0  02:23      0.0441      0.0444       4.119
  HS02004881           JUNCTION      3.02    30.59     0  02:26      0.0193       0.202       0.030
  HS02004876           JUNCTION      5.62    27.61     0  02:25       0.037       0.183       0.287
  HS02004870           JUNCTION      5.65    22.05     0  02:25      0.0365       0.146       0.073
  HS02004862           JUNCTION      5.62    16.52     0  02:26      0.0423        0.11       0.153
  HS02004856           JUNCTION      4.24    10.94     0  02:25      0.0275      0.0692       2.125
  HS02004852           JUNCTION      0.00     6.79     0  02:25           0      0.0418       0.121
  HS02004848           JUNCTION     12.41    12.41     0  02:25      0.0875      0.0875       0.049
  HS02004842           JUNCTION      0.00     5.63     0  02:36           0      0.0588      28.413
  HS02004837           JUNCTION     16.06    21.60     0  02:25       0.246       0.292       0.270
  HS02004830           JUNCTION      0.15    21.74     0  02:26     0.00432       0.283       0.438
  HS02004824           JUNCTION     15.19    36.93     0  02:26       0.115       0.396       0.136
  HS02004817           JUNCTION      0.60    37.52     0  02:27      0.0173       0.413       4.206
  HS02004807           JUNCTION     10.43    47.64     0  02:26      0.0671       0.464       0.946
  HS02004802           JUNCTION      0.00    47.64     0  02:28           0       0.462       0.863
  HS02004799           JUNCTION      8.38    92.69     0  02:25      0.0543       0.639       0.441
  HS02004792           JUNCTION     35.52    84.38     0  02:24       0.234       0.585       0.070
  HS02004788           JUNCTION     13.26    49.21     0  02:25       0.124       0.352       0.109
  HS02004785           JUNCTION      0.15    36.14     0  02:25     0.00432        0.23       0.209
  HS02004777           JUNCTION      0.03    36.15     0  02:24    0.000864        0.23       2.307
  HS02004770           JUNCTION     29.51    36.34     0  02:23       0.189       0.231       1.351
  HS02004480           JUNCTION      0.00   109.86     0  02:26           0       0.749       0.130
  HS02004479           JUNCTION      0.00    17.35     0  02:27           0       0.122       0.600
  HS02004478           JUNCTION      0.00   157.35     0  02:26           0         1.2       0.030
  YS02001745           JUNCTION    119.00   226.08     0  03:05        1.26        1.28       0.900
  YS02001748           JUNCTION      0.04   325.32     0  03:05      0.0013        1.27       1.757
  YS02001751           JUNCTION      0.01   231.41     0  02:56    0.000317        1.23       1.872
  YS02001754           JUNCTION      0.26   156.17     0  02:53     0.00749        1.22       2.118
  YS02001762           JUNCTION      0.00   165.00     0  03:06           0        1.29       1.692
  YS02001765           JUNCTION      0.00   160.89     0  03:06           0         1.3       1.936
  YS02001767           JUNCTION      0.54   157.80     0  03:05      0.0154        1.32       2.789
  YS02001770           JUNCTION    148.44   151.53     0  02:59        1.45        1.47       2.252
  YS02001774           JUNCTION      0.00   111.32     0  03:53           0        0.15      20.234
  YS02001779           JUNCTION      0.01   110.74     0  03:52    0.000144       0.116      15.505
  YS02001882           JUNCTION      0.00     2.90     0  01:15           0     0.00704      34.858
  YS02001884           JUNCTION      0.00     7.49     0  01:37           0      0.0275      23.097
  YS02001759           JUNCTION    142.60   303.24     0  03:05        1.35         2.6       0.903
  YS02001887           JUNCTION    178.12   178.12     0  03:01        1.58        1.59       0.470
  YS02001890           JUNCTION      0.00   176.11     0  03:01           0        1.56       0.525
  YS02001898           JUNCTION      0.00   174.42     0  03:00           0        1.55       0.153
  YS02001901           JUNCTION      0.00   173.62     0  03:00           0        1.55       0.383
  YS02001904           JUNCTION      0.00   173.34     0  03:03           0        1.55       0.351
  YS02001907           JUNCTION      0.00   331.60     0  03:05           0        3.37       0.674
  YS02001910           JUNCTION      0.00   158.67     0  03:04           0        1.83       0.579
  YS02001915           JUNCTION    105.26   157.94     0  03:03        1.07        1.84       0.266
  YS02001918           JUNCTION      0.00    55.10     0  03:05           0       0.767       0.179
  YS02001619           JUNCTION    102.81   102.81     0  03:01        1.06        1.06       1.172
  YS02001629           JUNCTION      0.00   155.92     0  02:54           0        0.98       3.065
  YS02001641           JUNCTION      0.00   230.37     0  03:05           0        2.12       1.009
  YS02001644           JUNCTION    113.29   584.22     0  03:49        1.22        5.58       0.475
  YS02001652           JUNCTION      0.00   159.00     0  03:02           0         1.1       2.231
  YS02001655           JUNCTION      0.15   211.46     0  02:53     0.00443        1.13       2.181
  YS02001920           JUNCTION      2.87    55.04     0  03:02      0.0827        0.77       0.301
  YS02001923           JUNCTION      0.04    52.17     0  03:02     0.00109       0.688       0.054
  YS02001926           JUNCTION      0.05    52.31     0  03:01      0.0015       0.689       0.372
  YS02001929           JUNCTION     52.30    52.30     0  03:01       0.688       0.688       0.052
  YS02001658           JUNCTION      0.00   309.36     0  03:09           0        1.15       1.949
  YS02001661           JUNCTION      0.00   358.87     0  03:26           0         1.2       1.369
  YS02001664           JUNCTION    129.12   272.81     0  03:25        1.17         1.2       0.514
  YS02001622           JUNCTION      0.00   133.72     0  02:58           0        1.05       3.117
  YS02001633           JUNCTION    115.33   228.04     0  03:04        1.25        2.18       1.497
  YS02001649           JUNCTION      0.00   480.90     0  03:02           0        4.32       0.882
  YS02001757           JUNCTION      0.00   851.90     0  03:02           0        5.85       1.599
  YS02001895           JUNCTION      0.00   175.46     0  03:01           0        1.56       0.257
  YS02001625           JUNCTION      0.00   155.98     0  02:54           0        1.02       3.971
  YS02163301           JUNCTION      0.00   115.79     0  03:05           0       0.957       2.605
  YS02163601           JUNCTION      0.11   228.84     0  03:04     0.00317        2.15       1.429
  YS02164001           JUNCTION      0.00   229.70     0  03:05           0        2.13       0.981
  YS02001647           JUNCTION      0.00   364.28     0  03:49           0        3.73       0.784
  YSB1154              JUNCTION     10.01    10.01     0  02:24      0.0659      0.0666       2.220
  YSB6556              JUNCTION      0.00     9.94     0  02:24           0      0.0673       1.886
  YSB1174              JUNCTION      7.62     7.62     0  02:23      0.0479      0.0483       2.727
  YSB1171              JUNCTION      0.00    18.16     0  01:11           0       0.121       5.514
  YS02006553           JUNCTION      0.00   332.43     0  03:05           0        3.36       0.436
  YS02006561           JUNCTION      0.00   518.33     0  03:03           0        4.75       0.007
  YS02006556           JUNCTION      0.00   332.95     0  03:05           0        3.36       0.316
  YS02006558           JUNCTION    155.63   482.69     0  03:02        1.44        4.78       0.104
  YS02001783           JUNCTION      0.00   481.94     0  03:03           0        4.75       0.037
  YS02001784           JUNCTION      1.06   482.70     0  03:04      0.0305        4.78       0.059
  YS02001786           JUNCTION      0.06   482.73     0  03:04     0.00162        4.78       0.057
  YS02001788           JUNCTION      0.07   482.81     0  03:04     0.00204        4.78       0.033
  YS02001790           JUNCTION      0.15   482.98     0  03:04     0.00446        4.78       0.041
  YS02001791           JUNCTION      0.00   482.95     0  03:04           0        4.78       0.018
  YS02001793           JUNCTION      0.00   812.71     0  02:25           0        4.87      -0.052
  WSC                  OUTFALL       0.00   751.66     0  02:44           0          13       0.000
  JK-storage           STORAGE       0.00   964.61     0  02:25           0        5.02      -0.015
  CC-storage           STORAGE       0.00   853.96     0  03:03           0        3.95       1.673
  XR-storage           STORAGE     419.73   419.73     0  03:01        8.32        8.92      -0.002
  
  
  **********************
  Node Surcharge Summary
  **********************
  
  Surcharging occurs when water rises above the top of the highest conduit.
  ---------------------------------------------------------------------
                                               Max. Height   Min. Depth
                                   Hours       Above Crown    Below Rim
  Node                 Type      Surcharged         Meters       Meters
  ---------------------------------------------------------------------
  WS02006109           JUNCTION        0.88          0.040        1.780
  WS02006256           JUNCTION        6.41          2.050        0.000
  WS02006228           JUNCTION        0.85          0.044        2.156
  YS02001748           JUNCTION        4.71          0.224        0.966
  YS02001751           JUNCTION        5.02          0.508        0.692
  YS02001754           JUNCTION        5.32          0.728        0.422
  YS02001762           JUNCTION        5.67          0.991        0.159
  YS02001765           JUNCTION        5.63          0.937        0.163
  YS02001767           JUNCTION        5.58          0.898        0.132
  YS02001770           JUNCTION        5.55          0.855        0.065
  YS02001774           JUNCTION        5.65          0.958        0.092
  YS02001779           JUNCTION        5.28          0.680        0.000
  YS02001759           JUNCTION        5.72          1.026        0.184
  YS02001619           JUNCTION        5.01          0.463        0.147
  YS02001629           JUNCTION        5.00          0.449        0.021
  YS02001641           JUNCTION        5.64          0.927        0.173
  YS02001644           JUNCTION        5.65          0.920        0.000
  YS02001652           JUNCTION        5.39          0.765        0.365
  YS02001655           JUNCTION        5.07          0.549        0.651
  YS02001658           JUNCTION        4.71          0.265        1.035
  YS02001622           JUNCTION        5.02          0.485        0.135
  YS02001633           JUNCTION        5.61          0.904        0.156
  YS02001649           JUNCTION        5.69          0.998        0.052
  YS02001757           JUNCTION        5.88          1.125        0.085
  YS02001625           JUNCTION        5.46          0.780        0.000
  YS02163301           JUNCTION        5.57          0.865        0.165
  YS02163601           JUNCTION        5.69          0.971        0.109
  YS02164001           JUNCTION        5.62          0.905        0.195
  YS02001647           JUNCTION        5.43          0.762        0.138
  
  
  *********************
  Node Flooding Summary
  *********************
  
  Flooding refers to all water that overflows a node, whether it ponds or not.
  --------------------------------------------------------------------------
                                                             Total   Maximum
                                 Maximum   Time of Max       Flood    Ponded
                        Hours       Rate    Occurrence      Volume     Depth
  Node                 Flooded       LPS   days hr:min    10^6 ltr    Meters
  --------------------------------------------------------------------------
  WS02006256              3.90    738.38      0  02:36       1.233     0.000
  YS02001779              0.77    110.41      0  03:52       0.093     0.000
  YS02001644              4.47    583.78      0  03:49       4.082     0.000
  XR-storage              3.10    134.72      0  03:01       0.664     0.000
  
  
  **********************
  Storage Volume Summary
  **********************
  
  --------------------------------------------------------------------------------------------------
                         Average     Avg  Evap Exfil       Maximum     Max    Time of Max    Maximum
                          Volume    Pcnt  Pcnt  Pcnt        Volume    Pcnt     Occurrence    Outflow
  Storage Unit           1000 m3    Full  Loss  Loss       1000 m3    Full    days hr:min        LPS
  --------------------------------------------------------------------------------------------------
  JK-storage               0.202      69     0     0         0.245      84       0  03:09     983.00
  CC-storage               2.379      15     0     0         3.858      25       0  03:45     142.51
  XR-storage               0.873      94     0     0         0.926     100       0  02:35     285.00
  
  
  ***********************
  Outfall Loading Summary
  ***********************
  
  ---------------------------------------------------------------------------------------------------------------------------------
                         Flow       Avg       Max       Total         Total         Total         Total         Total         Total
                         Freq      Flow      Flow      Volume           COD            SS            TN            TP         NH4-N
  Outfall Node           Pcnt       LPS       LPS    10^6 ltr            kg            kg            kg            kg            kg
  ---------------------------------------------------------------------------------------------------------------------------------
  WSC                   99.99    487.90    751.66      13.011      1797.933      2927.163       144.236        17.577        88.961
  ---------------------------------------------------------------------------------------------------------------------------------
  System                99.99    487.90    751.66      13.011      1797.933      2927.163       144.236        17.577        88.961
  
  
  ********************
  Link Flow Summary
  ********************
  
  -----------------------------------------------------------------------------
                                 Maximum  Time of Max   Maximum    Max/    Max/
                                  |Flow|   Occurrence   |Veloc|    Full    Full
  Link                 Type          LPS  days hr:min     m/sec    Flow   Depth
  -----------------------------------------------------------------------------
  WS02003066WSF200     CONDUIT    441.00     0  02:39      2.63    0.07    0.21
  WS02006287WS02006284 CONDUIT    157.34     0  02:27      1.48    0.07    0.19
  WS02006284WS02006280 CONDUIT    157.44     0  02:27      1.72    0.07    0.17
  WS02006280WS02006229 CONDUIT    157.44     0  02:27      2.76    0.03    0.13
  WS02006229WS02006228 CONDUIT    436.00     0  02:32      0.87    1.44    1.00
  WS02006256WS02006235 CONDUIT    287.95     0  07:55      4.18    3.05    1.00
  WS02006253WS02006251 CONDUIT     31.30     0  02:26      0.45    0.09    0.24
  WS02006252WS02006251 CONDUIT      0.00     0  00:00      0.00    0.00    0.00
  WS02006251WS02006249 CONDUIT     31.24     0  02:27      0.48    0.09    0.23
  WS02006249WS02006248 CONDUIT     30.88     0  02:27      0.56    0.17    0.24
  WS02006248WS02006247 CONDUIT     31.67     0  02:07      0.54    0.07    0.30
  WS02006247WS02006245 CONDUIT     39.12     0  02:07      0.51    0.31    0.37
  WS02006245WS02006243 CONDUIT     49.04     0  02:07      0.63    0.15    0.42
  WS02006243WS02006242 CONDUIT     81.05     0  02:06      0.58    0.17    0.56
  WS02006242WS02006240 CONDUIT    102.54     0  02:05      0.70    0.41    0.67
  WS02006240WS02006239 CONDUIT    122.79     0  02:05      0.75    0.39    0.69
  WS02006239WS02006238 CONDUIT    153.10     0  02:04      0.86    0.49    0.81
  WS02006238WS02006235 CONDUIT    184.25     0  05:57      1.24    0.41    0.85
  WS02006235WS02006234 CONDUIT    275.00     0  02:41      1.09    2.90    0.80
  WS02006234WS02006232 CONDUIT    275.15     0  02:41      0.97    0.56    0.87
  WS02006232WS02006231 CONDUIT    275.44     0  03:10      0.86    0.58    0.84
  WS02006231WS02006230 CONDUIT    276.60     0  03:10      1.21    4.20    0.71
  WS02006230WS02006229 CONDUIT    288.81     0  03:11      0.75    6.43    1.00
  WS02006228WS02006109 CONDUIT    436.00     0  02:32      0.87    1.90    1.00
  WS02006116WS02004401 CONDUIT    441.82     0  02:35      0.69    0.61    0.76
  WS02006115WS02006116 CONDUIT    441.93     0  02:35      0.81    0.57    0.68
  WS02006113WS02006111 CONDUIT    449.91     0  02:34      2.29    0.54    0.41
  WS02006112WS02006115 CONDUIT    442.20     0  02:33      0.65    0.26    0.81
  WS02006111WS02006112 CONDUIT    438.47     0  02:32      1.26    0.21    0.65
  WS02006110WS02006113 CONDUIT    437.36     0  02:32      1.08    0.40    0.75
  WS02006109WS02006110 CONDUIT    437.24     0  02:32      0.88    0.84    0.96
  WS02004411WS02004412 CONDUIT    441.14     0  02:38      0.84    0.63    0.63
  WS02004401WS02004402 CONDUIT    441.70     0  02:35      0.66    0.53    0.79
  WS02004413WS02003067 CONDUIT    441.00     0  02:39      1.00    0.19    0.55
  WS02004412WS02004413 CONDUIT    441.06     0  02:38      0.74    0.30    0.72
  WS02004410WS02004411 CONDUIT    441.27     0  02:37      0.86    0.60    0.62
  WS02004409WS02004410 CONDUIT    441.46     0  02:37      0.89    0.57    0.61
  WS02004407WS02004409 CONDUIT    441.69     0  02:36      1.36    0.16    0.43
  WS02004406WS02004407 CONDUIT    441.73     0  02:36      0.93    0.20    0.58
  WS02004405WS02004406 CONDUIT    441.85     0  02:36      0.59    0.87    0.90
  WS02004404WS02004405 CONDUIT    441.79     0  02:36      0.59    4.33    0.90
  WS02004403WS02004404 CONDUIT    441.62     0  02:36      0.61    0.32    0.86
  WS02004402WS02004403 CONDUIT    441.68     0  02:36      0.64    0.63    0.82
  WS02004139WS02001211 CONDUIT    286.65     0  01:36      0.54    0.36    0.53
  WS02004138WS02004139 CONDUIT    285.00     0  01:38      2.39    0.06    0.38
  WS02003067WS02003066 CONDUIT    441.00     0  02:39      1.08    0.14    0.39
  WS02001213WS02003059 CONDUIT    297.82     0  04:43      0.59    0.49    0.70
  WS02001212WS02001213 CONDUIT    295.71     0  04:44      1.19    0.46    0.40
  WS02001211WS02001212 CONDUIT    294.64     0  04:44      0.67    0.23    0.57
  WS02003072WS02003073 CONDUIT    749.83     0  02:43      1.60    1.62    0.43
  WS02003069WS02003072 CONDUIT    749.84     0  02:42      1.51    0.36    0.45
  WS02003060WS02003069 CONDUIT    749.52     0  02:42      1.77    0.29    0.40
  WS02003059WS02003060 CONDUIT    300.94     0  04:42      0.82    0.20    0.60
  HS02004901HS02004770 CONDUIT      6.87     0  02:24      0.07    0.03    0.28
  HS02004876HS02004881 CONDUIT     27.64     0  02:26      0.48    0.29    0.08
  HS02004870HS02004876 CONDUIT     22.04     0  02:26      0.34    0.01    0.09
  HS02004842HS02004848 CONDUIT      5.63     0  02:36      0.03    0.00    0.27
  HS02004837HS02004842 CONDUIT      5.71     0  03:02      0.42    0.00    0.28
  HS02004830HS02004837 CONDUIT     21.59     0  02:26      0.43    0.02    0.07
  HS02004824HS02004830 CONDUIT     21.73     0  02:26      0.46    0.03    0.07
  HS02004817HS02004824 CONDUIT     36.92     0  02:27      0.17    0.02    0.39
  HS02004770HS02004777 CONDUIT     36.12     0  02:24      0.23    0.07    0.30
  HS02004799HS02004480 CONDUIT     92.61     0  02:25      0.50    0.12    0.27
  HS02004792HS02004799 CONDUIT     84.35     0  02:25      0.57    0.05    0.21
  HS02004788HS02004792 CONDUIT     49.19     0  02:26      0.73    0.03    0.10
  HS02004785HS02004788 CONDUIT     36.08     0  02:26      0.43    0.27    0.12
  HS02004777HS02004785 CONDUIT     35.99     0  02:25      0.22    0.04    0.24
  HS02004480HS02004478 CONDUIT    109.85     0  02:26      0.84    0.46    0.19
  HS02004479HS02004480 CONDUIT     17.44     0  02:28      0.34    0.02    0.26
  HS02004862HS02004870 CONDUIT     16.49     0  02:26      0.43    0.02    0.05
  HS02004848HS02004852 CONDUIT      6.79     0  02:25      0.29    0.01    0.03
  HS02004856HS02004862 CONDUIT     10.92     0  02:26      0.31    0.01    0.05
  HS02004852HS02004856 CONDUIT      6.77     0  02:27      0.11    0.01    0.09
  HS02004802HS02004478 CONDUIT     47.72     0  02:29      0.29    0.04    0.23
  HS02004478WS02006287 CONDUIT    157.35     0  02:27      1.17    0.04    0.15
  HS02004817HS02004807 CONDUIT     37.58     0  02:28      0.11    0.02    0.49
  HS02004807HS02004802 CONDUIT     47.64     0  02:28      0.24    0.09    0.28
  YS02001759YS02001757 CONDUIT    306.29     0  03:05      0.39    0.22    1.00
  YS02001762YS02001759 CONDUIT    169.06     0  03:06      0.22    0.19    1.00
  YS02001765YS02001762 CONDUIT    165.00     0  03:06      0.31    0.15    1.00
  YS02001770YS02001767 CONDUIT    157.27     0  03:05      0.33    0.62    1.00
  YS02001774YS02001770 CONDUIT    111.32     0  03:53      0.30    0.07    1.00
  YS02001779YS02001774 CONDUIT    110.73     0  03:52      0.14    0.06    1.00
  YS02001649YS02001757 CONDUIT    482.49     0  03:02      0.61    0.29    1.00
  YS02001767YS02001765 CONDUIT    160.89     0  03:06      0.36    0.20    1.00
  YS02006561YS02001783 CONDUIT    481.94     0  03:03      1.97    0.25    0.49
  YS02001783YS02001784 CONDUIT    481.64     0  03:04      1.42    0.66    0.64
  YS02001784YS02001785 CONDUIT    482.67     0  03:04      1.53    1.12    0.60
  YS02001788YS02001790 CONDUIT    482.82     0  03:04      2.08    0.36    0.47
  YS02001790YS02001791 CONDUIT    482.95     0  03:04      2.47    0.53    0.41
  YS02001791YS02001793 CONDUIT    484.64     0  03:04      4.46    0.21    0.65
  YS02001910YS02001907 CONDUIT    159.34     0  03:05      0.49    0.09    0.86
  YS02001786YS02001788 CONDUIT    482.74     0  03:04      1.98    0.93    0.49
  YS02001915YS02001910 CONDUIT    158.67     0  03:04      0.61    0.08    0.65
  YS02001918YS02001915 CONDUIT     57.12     0  03:11      0.44    0.03    0.37
  YS02001923YS02001920 CONDUIT     52.17     0  03:02      0.54    0.02    0.19
  YS02001926YS02001923 CONDUIT     52.13     0  03:02      0.60    0.07    0.17
  YS02001929YS02001926 CONDUIT     52.25     0  03:01      0.65    0.02    0.16
  YS02001920YS02001918 CONDUIT     55.10     0  03:05      0.54    0.05    0.23
  YS02001629YS02163301 CONDUIT    115.79     0  03:05      0.15    0.14    1.00
  YS02001619YS02001622 CONDUIT    133.72     0  02:58      0.55    0.20    1.00
  YS02001622YS02001625 CONDUIT    155.98     0  02:54      0.41    0.08    1.00
  YS02001625YS02001629 CONDUIT    155.92     0  02:54      0.20    0.07    1.00
  YS02163301YS02001633 CONDUIT    117.11     0  03:11      0.15    0.11    1.00
  YS02163601YS02164001 CONDUIT    229.70     0  03:05      0.29    0.20    1.00
  YS02164001YS02001641 CONDUIT    230.37     0  03:05      0.29    0.31    1.00
  YS02001641YS02001644 CONDUIT    231.54     0  03:05      0.29    0.75    1.00
  YS02001647YS02001649 CONDUIT    364.28     0  03:49      0.46    0.19    1.00
  YS02006553YS02006556 CONDUIT    332.95     0  03:05      0.44    0.28    0.94
  YS02006556YS02006558 CONDUIT    337.47     0  03:10      0.44    0.27    0.96
  YSB6556YSB1171       CONDUIT      9.95     0  02:27      0.08    0.01    0.53
  YS02001907YS02006553 CONDUIT    332.43     0  03:05      0.37    0.39    1.00
  YS02006558YS02006561 CONDUIT    518.33     0  03:03      2.76    1.15    0.64
  YS02001633YS02163601 CONDUIT    228.73     0  03:04      0.29    0.24    1.00
  YS02001644YS02001647 CONDUIT    365.87     0  03:49      0.47    0.21    1.00
  YS02001745YS02001748 CONDUIT    325.28     0  03:05      1.37    0.13    0.93
  YS02001748YS02001751 CONDUIT    231.39     0  02:56      0.98    0.12    1.00
  YS02001751YS02001754 CONDUIT    155.91     0  02:53      0.78    0.08    1.00
  YS02001754YS02001757 CONDUIT    157.12     0  02:53      0.33    0.06    1.00
  YS02001882YS02001884 CONDUIT      3.03     0  03:18      0.13    0.00    0.58
  YS02001884YS02001887 CONDUIT      7.49     0  01:37      0.09    0.01    0.68
  YS02001890YS02001895 CONDUIT    175.46     0  03:01      0.33    0.08    0.65
  YS02001895YS02001898 CONDUIT    174.42     0  03:00      0.44    0.30    0.51
  YS02001898YS02001901 CONDUIT    173.62     0  03:00      0.37    0.11    0.59
  YS02001901YS02001904 CONDUIT    173.34     0  03:03      0.33    0.27    0.64
  YS02001904YS02001907 CONDUIT    173.30     0  03:02      0.26    0.06    0.80
  YS02001887YS02001890 CONDUIT    176.11     0  03:01      0.29    0.30    0.73
  YS02001652YS02001649 CONDUIT    160.24     0  03:02      0.66    0.08    1.00
  YS02001655YS02001652 CONDUIT    159.00     0  03:02      0.83    0.08    1.00
  YS02001658YS02001655 CONDUIT    211.31     0  02:53      1.13    0.09    1.00
  YS02001661YS02001658 CONDUIT    309.36     0  03:09      1.42    0.12    0.97
  YS02001664YS02001661 CONDUIT    358.87     0  03:26      1.27    0.11    0.71
  YSB1154YSB6556       CONDUIT      9.94     0  02:24      0.15    0.02    0.42
  YSB1174YSB1171       CONDUIT      7.89     0  01:18      0.05    0.01    0.54
  YSB1171HS02004479    CONDUIT     17.35     0  02:27      0.54    0.01    0.41
  HS02004881HS02006253 CONDUIT     30.59     0  02:26      1.51    0.01    0.03
  YS02001793JiankangQianchi CONDUIT    964.61     0  02:25      1.79    0.08    0.98
  YS02001757CaochengTiaoxuchi CONDUIT    853.96     0  03:03      1.17    0.38    1.00
  WSF200WS02003060     CONDUIT    441.04     0  02:39      1.53    0.10    0.30
  1                    CONDUIT    751.66     0  02:44      3.08    0.26    0.35
  CC-Pump-1            PUMP         0.00     0  00:00              0.00
  CC-Pump-2            PUMP         0.00     0  00:00              0.00
  JK-Pump-1            PUMP       300.00     0  01:50              1.00
  JK-Pump-2            PUMP       683.00     0  02:31              1.00
  XR-Pump-1            PUMP        95.00     0  00:00              1.00
  XR-Pump-2            PUMP        95.00     0  00:25              1.00
  XR-Pump-3            PUMP        95.00     0  01:35              1.00
  XR-Pump-4            PUMP         0.00     0  00:00              0.00
  
  
  ***************************
  Flow Classification Summary
  ***************************
  
  -------------------------------------------------------------------------------------
                      Adjusted    ---------- Fraction of Time in Flow Class ---------- 
                       /Actual         Up    Down  Sub   Sup   Up    Down  Norm  Inlet 
  Conduit               Length    Dry  Dry   Dry   Crit  Crit  Crit  Crit  Ltd   Ctrl  
  -------------------------------------------------------------------------------------
  WS02003066WSF200        1.00   0.18  0.00  0.00  0.00  0.82  0.00  0.00  0.75  0.00
  WS02006287WS02006284    1.00   0.06  0.03  0.00  0.48  0.42  0.00  0.00  0.84  0.00
  WS02006284WS02006280    1.00   0.08  0.00  0.00  0.00  0.00  0.00  0.92  0.00  0.00
  WS02006280WS02006229    1.00   0.08  0.00  0.00  0.00  0.00  0.00  0.92  0.00  0.00
  WS02006229WS02006228    1.00   0.00  0.00  0.00  0.99  0.00  0.00  0.01  0.00  0.00
  WS02006256WS02006235    1.00   0.12  0.00  0.00  0.87  0.01  0.00  0.00  0.01  0.00
  WS02006253WS02006251    1.00   0.03  0.04  0.00  0.92  0.00  0.01  0.00  0.00  0.00
  WS02006252WS02006251    1.00   1.00  0.00  0.00  0.00  0.00  0.00  0.00  0.00  0.00
  WS02006251WS02006249    1.00   0.00  0.00  0.00  1.00  0.00  0.00  0.00  0.88  0.00
  WS02006249WS02006248    1.00   0.00  0.01  0.00  0.49  0.00  0.50  0.00  0.00  0.00
  WS02006248WS02006247    1.00   0.01  0.00  0.00  0.95  0.00  0.00  0.03  0.46  0.00
  WS02006247WS02006245    1.00   0.01  0.00  0.00  0.92  0.00  0.00  0.06  0.00  0.00
  WS02006245WS02006243    1.00   0.02  0.00  0.00  0.89  0.00  0.00  0.09  0.02  0.00
  WS02006243WS02006242    1.00   0.02  0.00  0.00  0.89  0.00  0.00  0.09  0.32  0.00
  WS02006242WS02006240    1.00   0.03  0.07  0.00  0.88  0.00  0.02  0.00  0.00  0.00
  WS02006240WS02006239    1.00   0.10  0.00  0.00  0.82  0.00  0.00  0.07  0.04  0.00
  WS02006239WS02006238    1.00   0.10  0.00  0.00  0.88  0.00  0.00  0.02  0.01  0.00
  WS02006238WS02006235    1.00   0.11  0.01  0.00  0.88  0.00  0.00  0.00  0.00  0.00
  WS02006235WS02006234    1.00   0.12  0.00  0.00  0.82  0.00  0.05  0.00  0.00  0.00
  WS02006234WS02006232    1.00   0.12  0.00  0.00  0.88  0.00  0.00  0.00  0.02  0.00
  WS02006232WS02006231    1.00   0.12  0.02  0.00  0.85  0.00  0.01  0.00  0.00  0.00
  WS02006231WS02006230    1.00   0.14  0.00  0.00  0.33  0.00  0.53  0.00  0.00  0.00
  WS02006230WS02006229    1.00   0.00  0.00  0.00  0.98  0.00  0.00  0.02  0.01  0.00
  WS02006228WS02006109    1.00   0.00  0.00  0.00  1.00  0.00  0.00  0.00  0.01  0.00
  WS02006116WS02004401    1.00   0.07  0.00  0.00  0.93  0.00  0.00  0.00  0.00  0.00
  WS02006115WS02006116    1.00   0.07  0.00  0.00  0.87  0.00  0.00  0.06  0.00  0.00
  WS02006113WS02006111    1.00   0.04  0.00  0.00  0.02  0.94  0.00  0.00  0.31  0.00
  WS02006112WS02006115    1.00   0.04  0.02  0.00  0.93  0.00  0.00  0.00  0.00  0.00
  WS02006111WS02006112    1.00   0.04  0.00  0.00  0.95  0.00  0.00  0.01  0.92  0.00
  WS02006110WS02006113    1.00   0.01  0.03  0.00  0.96  0.00  0.00  0.00  0.00  0.00
  WS02006109WS02006110    1.00   0.00  0.01  0.00  0.99  0.00  0.01  0.00  0.00  0.00
  WS02004411WS02004412    1.00   0.14  0.00  0.00  0.86  0.00  0.00  0.00  0.00  0.00
  WS02004401WS02004402    1.00   0.07  0.00  0.00  0.93  0.00  0.00  0.00  0.04  0.00
  WS02004413WS02003067    1.00   0.15  0.02  0.00  0.00  0.00  0.83  0.00  0.00  0.00
  WS02004412WS02004413    1.00   0.15  0.00  0.00  0.85  0.01  0.00  0.00  0.00  0.00
  WS02004410WS02004411    1.00   0.14  0.00  0.00  0.86  0.00  0.00  0.00  0.00  0.00
  WS02004409WS02004410    1.00   0.14  0.00  0.00  0.86  0.00  0.00  0.00  0.00  0.00
  WS02004407WS02004409    1.00   0.14  0.00  0.00  0.85  0.01  0.00  0.00  0.79  0.00
  WS02004406WS02004407    1.00   0.00  0.14  0.00  0.86  0.00  0.00  0.00  0.00  0.00
  WS02004405WS02004406    1.00   0.00  0.00  0.00  1.00  0.00  0.00  0.00  0.04  0.00
  WS02004404WS02004405    1.00   0.00  0.00  0.00  1.00  0.00  0.00  0.00  0.02  0.00
  WS02004403WS02004404    1.00   0.00  0.07  0.00  0.93  0.00  0.00  0.00  0.04  0.00
  WS02004402WS02004403    1.00   0.07  0.00  0.00  0.93  0.00  0.00  0.00  0.00  0.00
  WS02004139WS02001211    1.00   0.00  0.00  0.00  1.00  0.00  0.00  0.00  0.00  0.00
  WS02004138WS02004139    1.00   0.00  0.00  0.00  0.99  0.00  0.00  0.00  1.00  0.00
  WS02003067WS02003066    1.00   0.17  0.01  0.00  0.82  0.00  0.00  0.00  0.00  0.00
  WS02001213WS02003059    1.00   0.00  0.00  0.00  0.99  0.00  0.00  0.00  0.00  0.00
  WS02001212WS02001213    1.00   0.00  0.00  0.00  0.49  0.00  0.51  0.00  0.00  0.00
  WS02001211WS02001212    1.00   0.00  0.00  0.00  1.00  0.00  0.00  0.00  0.00  0.00
  WS02003072WS02003073    1.00   0.00  0.00  0.00  0.00  0.00  0.00  1.00  0.00  0.00
  WS02003069WS02003072    1.00   0.00  0.00  0.00  1.00  0.00  0.00  0.00  0.26  0.00
  WS02003060WS02003069    1.00   0.00  0.00  0.00  0.99  0.01  0.00  0.00  0.17  0.00
  WS02003059WS02003060    1.00   0.00  0.00  0.00  1.00  0.00  0.00  0.00  0.02  0.00
  HS02004901HS02004770    1.00   0.08  0.00  0.00  0.92  0.00  0.00  0.00  0.00  0.00
  HS02004876HS02004881    1.00   0.01  0.00  0.00  0.99  0.00  0.00  0.00  0.00  0.00
  HS02004870HS02004876    1.00   0.00  0.00  0.00  0.99  0.00  0.00  0.00  0.95  0.00
  HS02004842HS02004848    1.00   0.00  0.08  0.00  0.92  0.00  0.00  0.00  0.58  0.00
  HS02004837HS02004842    1.00   0.00  0.00  0.00  1.00  0.00  0.00  0.00  0.11  0.00
  HS02004830HS02004837    1.00   0.00  0.00  0.00  1.00  0.00  0.00  0.00  0.99  0.00
  HS02004824HS02004830    1.00   0.00  0.00  0.00  1.00  0.00  0.00  0.00  0.00  0.00
  HS02004817HS02004824    1.00   0.00  0.00  0.00  1.00  0.00  0.00  0.00  1.00  0.00
  HS02004770HS02004777    1.00   0.00  0.08  0.00  0.92  0.00  0.00  0.00  0.02  0.00
  HS02004799HS02004480    1.00   0.00  0.02  0.00  0.91  0.00  0.07  0.00  0.00  0.00
  HS02004792HS02004799    1.00   0.00  0.00  0.00  0.99  0.01  0.00  0.00  0.98  0.00
  HS02004788HS02004792    1.00   0.00  0.00  0.00  0.99  0.01  0.00  0.00  0.98  0.00
  HS02004785HS02004788    1.00   0.00  0.00  0.00  1.00  0.00  0.00  0.00  0.00  0.00
  HS02004777HS02004785    1.00   0.00  0.00  0.00  1.00  0.00  0.00  0.00  0.11  0.00
  HS02004480HS02004478    1.00   0.08  0.00  0.00  0.51  0.00  0.00  0.41  0.00  0.00
  HS02004479HS02004480    1.00   0.02  0.00  0.00  0.98  0.00  0.00  0.00  0.11  0.00
  HS02004862HS02004870    1.00   0.00  0.00  0.00  1.00  0.00  0.00  0.00  0.03  0.00
  HS02004848HS02004852    1.00   0.08  0.00  0.00  0.92  0.00  0.00  0.00  0.74  0.00
  HS02004856HS02004862    1.00   0.00  0.10  0.00  0.90  0.00  0.00  0.00  0.84  0.00
  HS02004852HS02004856    1.00   0.08  0.01  0.00  0.92  0.00  0.00  0.00  0.86  0.00
  HS02004802HS02004478    1.00   0.08  0.00  0.00  0.92  0.00  0.00  0.00  0.02  0.00
  HS02004478WS02006287    1.00   0.09  0.00  0.00  0.82  0.08  0.00  0.00  0.84  0.00
  HS02004817HS02004807    1.00   0.00  0.08  0.00  0.92  0.00  0.00  0.00  0.01  0.00
  HS02004807HS02004802    1.00   0.08  0.00  0.00  0.91  0.00  0.00  0.01  0.00  0.00
  YS02001759YS02001757    1.00   0.00  0.00  0.00  1.00  0.00  0.00  0.00  0.15  0.00
  YS02001762YS02001759    1.00   0.00  0.00  0.00  1.00  0.00  0.00  0.00  0.02  0.00
  YS02001765YS02001762    1.00   0.00  0.00  0.00  1.00  0.00  0.00  0.00  0.13  0.00
  YS02001770YS02001767    1.00   0.00  0.00  0.00  1.00  0.00  0.00  0.00  0.00  0.00
  YS02001774YS02001770    1.00   0.00  0.08  0.00  0.92  0.00  0.00  0.00  0.02  0.00
  YS02001779YS02001774    1.00   0.00  0.00  0.00  1.00  0.00  0.00  0.00  0.18  0.00
  YS02001649YS02001757    1.00   0.00  0.00  0.00  1.00  0.00  0.00  0.00  0.15  0.00
  YS02001767YS02001765    1.00   0.00  0.00  0.00  1.00  0.00  0.00  0.00  0.00  0.00
  YS02006561YS02001783    1.00   0.11  0.00  0.00  0.00  0.89  0.00  0.00  0.69  0.00
  YS02001783YS02001784    1.00   0.00  0.11  0.00  0.89  0.00  0.00  0.00  0.01  0.00
  YS02001784YS02001785    1.00   0.00  0.00  0.00  1.00  0.00  0.00  0.00  0.17  0.00
  YS02001788YS02001790    1.00   0.00  0.00  0.00  0.12  0.88  0.00  0.00  0.64  0.00
  YS02001790YS02001791    1.00   0.00  0.00  0.00  0.01  0.99  0.00  0.00  0.70  0.00
  YS02001791YS02001793    1.00   0.00  0.00  0.00  0.33  0.67  0.00  0.00  0.42  0.00
  YS02001910YS02001907    1.00   0.00  0.00  0.00  0.98  0.00  0.00  0.02  0.12  0.00
  YS02001786YS02001788    1.00   0.00  0.00  0.00  0.13  0.87  0.00  0.00  0.00  0.00
  YS02001915YS02001910    1.00   0.00  0.00  0.00  0.98  0.02  0.00  0.00  0.14  0.00
  YS02001918YS02001915    1.00   0.00  0.00  0.00  0.99  0.01  0.00  0.00  0.73  0.00
  YS02001923YS02001920    1.00   0.00  0.00  0.00  1.00  0.00  0.00  0.00  1.00  0.00
  YS02001926YS02001923    1.00   0.00  0.04  0.00  0.00  0.00  0.95  0.00  0.00  0.00
  YS02001929YS02001926    1.00   0.00  0.08  0.00  0.92  0.00  0.00  0.00  0.87  0.00
  YS02001920YS02001918    1.00   0.00  0.00  0.00  1.00  0.00  0.00  0.00  0.00  0.00
  YS02001629YS02163301    1.00   0.09  0.01  0.00  0.90  0.00  0.00  0.00  0.00  0.00
  YS02001619YS02001622    1.00   0.08  0.00  0.00  0.92  0.00  0.00  0.00  0.00  0.00
  YS02001622YS02001625    1.00   0.08  0.00  0.00  0.92  0.00  0.00  0.00  0.04  0.00
  YS02001625YS02001629    1.00   0.08  0.04  0.00  0.83  0.00  0.05  0.00  0.00  0.00
  YS02163301YS02001633    1.00   0.00  0.09  0.00  0.91  0.00  0.00  0.00  0.00  0.00
  YS02163601YS02164001    1.00   0.00  0.05  0.00  0.95  0.00  0.00  0.00  0.00  0.00
  YS02164001YS02001641    1.00   0.00  0.05  0.00  0.95  0.00  0.00  0.00  0.05  0.00
  YS02001641YS02001644    1.00   0.00  0.00  0.00  1.00  0.00  0.00  0.00  0.00  0.00
  YS02001647YS02001649    1.00   0.00  0.10  0.00  0.90  0.00  0.00  0.00  0.01  0.00
  YS02006553YS02006556    1.00   0.01  0.00  0.00  0.99  0.00  0.00  0.00  0.03  0.00
  YS02006556YS02006558    1.00   0.00  0.00  0.00  1.00  0.00  0.00  0.00  0.00  0.00
  YSB6556YSB1171          1.00   0.02  0.05  0.00  0.92  0.00  0.00  0.00  0.00  0.00
  YS02001907YS02006553    1.00   0.00  0.01  0.00  0.99  0.00  0.00  0.00  0.00  0.00
  YS02006558YS02006561    1.00   0.11  0.00  0.00  0.00  0.89  0.00  0.00  0.74  0.00
  YS02001633YS02163601    1.00   0.00  0.00  0.00  1.00  0.00  0.00  0.00  0.14  0.00
  YS02001644YS02001647    1.00   0.00  0.10  0.00  0.90  0.00  0.00  0.00  0.00  0.00
  YS02001745YS02001748    1.00   0.00  0.00  0.00  0.74  0.02  0.00  0.24  0.07  0.00
  YS02001748YS02001751    1.00   0.00  0.00  0.00  0.91  0.09  0.00  0.00  0.16  0.00
  YS02001751YS02001754    1.00   0.00  0.00  0.00  0.87  0.00  0.00  0.13  0.03  0.00
  YS02001754YS02001757    1.00   0.00  0.00  0.00  1.00  0.00  0.00  0.00  0.17  0.00
  YS02001882YS02001884    1.00   0.09  0.00  0.00  0.91  0.00  0.00  0.00  0.00  0.00
  YS02001884YS02001887    1.00   0.04  0.03  0.00  0.93  0.00  0.00  0.00  0.00  0.00
  YS02001890YS02001895    1.00   0.00  0.09  0.00  0.91  0.00  0.00  0.00  0.00  0.00
  YS02001895YS02001898    1.00   0.09  0.00  0.00  0.88  0.00  0.03  0.00  0.00  0.00
  YS02001898YS02001901    1.00   0.10  0.00  0.00  0.90  0.00  0.00  0.00  0.02  0.00
  YS02001901YS02001904    1.00   0.10  0.00  0.00  0.90  0.00  0.00  0.00  0.00  0.00
  YS02001904YS02001907    1.00   0.00  0.09  0.00  0.90  0.00  0.00  0.00  0.00  0.00
  YS02001887YS02001890    1.00   0.00  0.00  0.00  0.98  0.00  0.02  0.00  0.00  0.00
  YS02001652YS02001649    1.00   0.00  0.00  0.00  0.99  0.01  0.00  0.00  0.16  0.00
  YS02001655YS02001652    1.00   0.00  0.00  0.00  0.87  0.00  0.00  0.12  0.03  0.00
  YS02001658YS02001655    1.00   0.00  0.08  0.00  0.83  0.08  0.00  0.00  0.12  0.00
  YS02001661YS02001658    1.00   0.08  0.00  0.00  0.74  0.18  0.00  0.00  0.17  0.00
  YS02001664YS02001661    1.00   0.08  0.00  0.00  0.78  0.14  0.00  0.00  0.27  0.00
  YSB1154YSB6556          1.00   0.08  0.00  0.00  0.92  0.00  0.00  0.00  0.01  0.00
  YSB1174YSB1171          1.00   0.03  0.03  0.00  0.94  0.00  0.00  0.00  0.00  0.00
  YSB1171HS02004479       1.00   0.02  0.00  0.00  0.97  0.00  0.00  0.01  0.10  0.00
  HS02004881HS02006253    1.00   0.03  0.00  0.00  0.00  0.00  0.00  0.97  0.00  0.00
  YS02001793JiankangQianchi    1.00   0.00  0.00  0.00  1.00  0.00  0.00  0.00  0.53  0.00
  YS02001757CaochengTiaoxuchi    1.00   0.00  0.17  0.00  0.83  0.00  0.00  0.00  0.00  0.00
  WSF200WS02003060        1.00   0.00  0.18  0.00  0.82  0.00  0.00  0.00  0.57  0.00
  1                       1.00   0.00  0.00  0.00  0.00  1.00  0.00  0.00  0.29  0.00
  
  
  *************************
  Conduit Surcharge Summary
  *************************
  
  ----------------------------------------------------------------------------
                                                           Hours        Hours 
                         --------- Hours Full --------   Above Full   Capacity
  Conduit                Both Ends  Upstream  Dnstream   Normal Flow   Limited
  ----------------------------------------------------------------------------
  WS02006229WS02006228        0.85      0.92      0.85      1.78         0.85
  WS02006256WS02006235        4.49      4.55      6.38      3.91         0.01
  WS02006235WS02006234        0.01      0.01      0.01      4.17         0.01
  WS02006231WS02006230        0.01      0.01      0.01      4.82         0.01
  WS02006230WS02006229        1.22      1.43      1.22      5.46         1.22
  WS02006228WS02006109        0.88      1.08      0.88      2.84         0.88
  WS02006111WS02006112        0.01      0.01      2.26      0.01         0.01
  WS02006110WS02006113        0.01      0.01      0.99      0.01         0.01
  WS02006109WS02006110        0.01      0.01      1.08      0.01         0.01
  WS02004404WS02004405        0.01      0.01      0.01      5.11         0.01
  WS02003072WS02003073        0.01      0.01      0.01      3.68         0.01
  YS02001759YS02001757        5.72      5.72      5.88      0.01         0.01
  YS02001762YS02001759        5.67      5.67      5.72      0.01         0.01
  YS02001765YS02001762        5.63      5.63      5.67      0.01         0.01
  YS02001770YS02001767        5.58      5.58      5.58      0.01         0.46
  YS02001774YS02001770        5.55      5.55      5.65      0.01         0.01
  YS02001779YS02001774        5.28      5.28      5.65      0.01         0.01
  YS02001649YS02001757        5.69      5.69      5.88      0.01         0.01
  YS02001767YS02001765        5.58      5.58      5.63      0.01         0.01
  YS02001784YS02001785        0.01      0.01      0.01      0.55         0.01
  YS02001791YS02001793        0.01      0.01      0.20      0.01         0.01
  YS02001629YS02163301        5.53      5.53      5.57      0.01         0.01
  YS02001619YS02001622        5.01      5.01      5.02      0.01         0.01
  YS02001622YS02001625        5.02      5.02      5.46      0.01         0.01
  YS02001625YS02001629        5.00      5.00      5.46      0.01         0.01
  YS02163301YS02001633        5.57      5.57      5.63      0.01         0.01
  YS02163601YS02164001        5.62      5.62      5.69      0.01         0.01
  YS02164001YS02001641        5.62      5.62      5.64      0.01         0.01
  YS02001641YS02001644        5.64      5.64      5.65      0.01         0.45
  YS02001647YS02001649        5.43      5.43      5.69      0.01         0.01
  YS02001907YS02006553        0.64      0.64      0.99      0.01         0.01
  YS02006558YS02006561        0.01      0.01      0.01      0.31         0.01
  YS02001633YS02163601        5.61      5.61      5.69      0.01         0.01
  YS02001644YS02001647        5.43      5.43      5.65      0.01         0.01
  YS02001745YS02001748        0.01      0.01      4.70      0.01         0.01
  YS02001748YS02001751        4.79      4.79      5.02      0.01         0.01
  YS02001751YS02001754        5.02      5.02      5.32      0.01         0.01
  YS02001754YS02001757        5.41      5.41      5.88      0.01         0.01
  YS02001652YS02001649        5.44      5.44      5.69      0.01         0.01
  YS02001655YS02001652        5.07      5.07      5.39      0.01         0.01
  YS02001658YS02001655        4.71      4.71      5.07      0.01         0.01
  YS02001661YS02001658        0.01      0.01      4.71      0.01         0.01
  YS02001664YS02001661        0.01      0.01      0.02      0.01         0.01
  YS02001793JiankangQianchi        0.01      0.01      7.98      0.01         0.01
  YS02001757CaochengTiaoxuchi        4.79      4.79      5.88      0.01         0.01
  
  
  ***************
  Pumping Summary
  ***************
  
  ---------------------------------------------------------------------------------------------------------
                                                  Min       Avg       Max     Total     Power    % Time Off
                        Percent   Number of      Flow      Flow      Flow    Volume     Usage    Pump Curve
  Pump                 Utilized   Start-Ups       LPS       LPS       LPS  10^6 ltr     Kw-hr    Low   High
  ---------------------------------------------------------------------------------------------------------
  CC-Pump-1                0.00           0      0.00      0.00      0.00     0.000      0.00    0.0    0.0
  CC-Pump-2                0.00           0      0.00      0.00      0.00     0.000      0.00    0.0    0.0
  JK-Pump-1               48.69          12      0.00    300.00    300.00     4.207     47.79    0.0    0.0
  JK-Pump-2                2.80          17      0.00    683.00    683.00     0.550      5.68    0.0  100.0
  XR-Pump-1              100.00           1      0.00     95.00     95.00     2.736     16.48    0.0    0.0
  XR-Pump-2               94.81           1      0.00     95.00     95.00     2.594     15.05    0.0    0.0
  XR-Pump-3               78.11           1      0.00     95.00     95.00     2.137     11.50    0.0    0.0
  XR-Pump-4                0.00           0      0.00      0.00      0.00     0.000      0.00    0.0    0.0
  
  
  ***************************
  Link Pollutant Load Summary
  ***************************
  
  ------------------------------------------------------------------------------------------
                                 COD            SS            TN            TP         NH4-N
  Link                            kg            kg            kg            kg            kg
  ------------------------------------------------------------------------------------------
  WS02003066WSF200           391.076       667.058        14.001         1.389         7.839
  WS02006287WS02006284       132.134       226.501         6.862         0.771         4.050
  WS02006284WS02006280       132.626       227.290         6.909         0.777         4.079
  WS02006280WS02006229       132.598       227.243         6.906         0.776         4.077
  WS02006229WS02006228       393.913       670.582        14.075         1.393         7.877
  WS02006256WS02006235       250.766       422.824         7.008         0.610         3.733
  WS02006253WS02006251        16.789        30.475         0.439         0.035         0.225
  WS02006252WS02006251         0.000         0.000         0.000         0.000         0.000
  WS02006251WS02006249        17.379        31.432         0.492         0.042         0.258
  WS02006249WS02006248        17.350        31.372         0.491         0.042         0.258
  WS02006248WS02006247        17.739        32.022         0.505         0.043         0.266
  WS02006247WS02006245        19.193        34.366         0.564         0.049         0.299
  WS02006245WS02006243        21.244        37.720         0.632         0.055         0.336
  WS02006243WS02006242        25.832        45.229         0.764         0.067         0.406
  WS02006242WS02006240        34.408        59.105         1.023         0.090         0.546
  WS02006240WS02006239        42.402        71.913         1.296         0.115         0.696
  WS02006239WS02006238        50.683        84.949         1.599         0.145         0.866
  WS02006238WS02006235        55.766        92.855         1.790         0.163         0.973
  WS02006235WS02006234       263.768       447.167         7.292         0.630         3.871
  WS02006234WS02006232       263.754       447.173         7.290         0.630         3.870
  WS02006232WS02006231       262.855       445.733         7.252         0.626         3.848
  WS02006231WS02006230       262.564       445.263         7.237         0.625         3.839
  WS02006230WS02006229       262.107       444.581         7.216         0.622         3.827
  WS02006228WS02006109       392.954       669.094        14.004         1.385         7.833
  WS02006116WS02004401       399.752       680.648        14.522         1.449         8.151
  WS02006115WS02006116       400.410       681.655        14.560         1.453         8.175
  WS02006113WS02006111       399.201       679.140        14.639         1.465         8.232
  WS02006112WS02006115       401.039       682.655        14.604         1.458         8.201
  WS02006111WS02006112       398.954       678.779        14.619         1.462         8.219
  WS02006110WS02006113       399.541       679.686        14.666         1.468         8.248
  WS02006109WS02006110       400.682       681.505        14.761         1.480         8.307
  WS02004411WS02004412       393.444       670.784        14.159         1.408         7.935
  WS02004401WS02004402       398.928       679.348        14.470         1.443         8.120
  WS02004413WS02003067       391.681       668.012        14.035         1.393         7.860
  WS02004412WS02004413       392.563       669.404        14.104         1.402         7.902
  WS02004410WS02004411       394.066       671.756        14.198         1.412         7.959
  WS02004409WS02004410       394.569       672.543        14.231         1.416         7.979
  WS02004407WS02004409       394.980       673.178        14.256         1.419         7.994
  WS02004406WS02004407       395.145       673.428        14.265         1.420         7.999
  WS02004405WS02004406       396.968       676.328        14.401         1.436         8.082
  WS02004404WS02004405       397.784       677.582        14.437         1.440         8.103
  WS02004403WS02004404       397.313       676.812        14.370         1.431         8.060
  WS02004402WS02004403       398.090       678.039        14.419         1.437         8.090
  WS02004139WS02001211      1254.661      2016.801       115.382        14.326        71.827
  WS02004138WS02004139      1259.044      2023.865       115.771        14.374        72.069
  WS02003067WS02003066       391.132       667.143        14.006         1.390         7.842
  WS02001213WS02003059      1292.805      2077.722       119.109        14.793        74.160
  WS02001212WS02001213      1299.437      2088.398       119.707        14.867        74.532
  WS02001211WS02001212      1301.045      2090.975       119.859        14.886        74.627
  WS02003072WS02003073      1790.025      2914.589       143.383        17.468        88.424
  WS02003069WS02003072      1794.096      2921.088       143.770        17.517        88.666
  WS02003060WS02003069      1795.072      2922.656       143.840        17.525        88.708
  WS02003059WS02003060      1290.901      2074.647       118.943        14.773        74.057
  HS02004901HS02004770         3.527         6.233         0.070         0.005         0.032
  HS02004876HS02004881        14.217        25.734         0.394         0.032         0.204
  HS02004870HS02004876        10.878        19.606         0.337         0.029         0.178
  HS02004842HS02004848         2.264         3.972         0.050         0.003         0.023
  HS02004837HS02004842         6.912        11.371         0.521         0.063         0.318
  HS02004830HS02004837        52.441        85.724         4.384         0.539         2.715
  HS02004824HS02004830        53.214        86.962         4.458         0.548         2.762
  HS02004817HS02004824        61.454       102.076         4.644         0.560         2.853
  HS02004770HS02004777        13.861        24.808         0.307         0.020         0.139
  HS02004799HS02004480        55.572        95.867         2.246         0.233         1.264
  HS02004792HS02004799        51.346        87.835         2.214         0.235         1.258
  HS02004788HS02004792        32.785        56.038         1.703         0.189         0.994
  HS02004785HS02004788        15.316        27.128         0.459         0.039         0.235
  HS02004777HS02004785        14.617        26.005         0.395         0.031         0.195
  HS02004480HS02004478        67.482       117.679         2.408         0.242         1.333
  HS02004479HS02004480        15.473        27.520         0.475         0.047         0.263
  HS02004862HS02004870         8.118        14.348         0.281         0.026         0.152
  HS02004848HS02004852         2.454         4.321         0.054         0.004         0.025
  HS02004856HS02004862         4.698         8.541         0.099         0.006         0.046
  HS02004852HS02004856         2.463         4.338         0.055         0.004         0.025
  HS02004802HS02004478        65.527       110.237         4.520         0.537         2.757
  HS02004478WS02006287       132.331       226.817         6.880         0.773         4.061
  HS02004817HS02004807        60.119        99.945         4.512         0.543         2.770
  HS02004807HS02004802        65.750       110.589         4.552         0.541         2.778
  YS02001759YS02001757       164.499       280.977         3.607         0.252         1.788
  YS02001762YS02001759        84.249       145.018         2.039         0.149         1.034
  YS02001765YS02001762        84.189       144.935         2.061         0.151         1.048
  YS02001770YS02001767        81.964       141.360         1.767         0.112         0.860
  YS02001774YS02001770         9.325        15.839         0.220         0.015         0.110
  YS02001779YS02001774         8.834        14.805         0.339         0.033         0.191
  YS02001649YS02001757       232.738       389.265         5.106         0.362         2.489
  YS02001767YS02001765        84.363       145.221         2.077         0.153         1.057
  YS02006561YS02001783       349.150       591.699         8.976         0.742         4.683
  YS02001783YS02001784       349.069       591.582         8.972         0.742         4.681
  YS02001784YS02001785       356.580       603.614         9.699         0.833         5.136
  YS02001788YS02001790       357.260       604.726         9.774         0.842         5.183
  YS02001790YS02001791       358.270       606.354         9.875         0.855         5.247
  YS02001791YS02001793       358.256       606.349         9.873         0.855         5.245
  YS02001910YS02001907       121.106       202.292         4.208         0.387         2.323
  YS02001786YS02001788       356.819       604.010         9.728         0.837         5.155
  YS02001915YS02001910       121.095       202.236         4.170         0.382         2.297
  YS02001918YS02001915        61.773        99.165         2.857         0.310         1.671
  YS02001923YS02001920        41.334        66.481         0.870         0.061         0.428
  YS02001926YS02001923        40.964        65.886         0.831         0.056         0.403
  YS02001929YS02001926        40.692        65.439         0.798         0.052         0.382
  YS02001920YS02001918        61.691        99.058         2.830         0.306         1.653
  YS02001629YS02163301        45.119        74.998         0.997         0.062         0.461
  YS02001619YS02001622        48.287        79.878         1.073         0.067         0.495
  YS02001622YS02001625        47.275        78.330         1.048         0.065         0.484
  YS02001625YS02001629        46.197        76.747         1.021         0.064         0.472
  YS02163301YS02001633        44.776        74.439         0.990         0.062         0.458
  YS02163601YS02164001       126.910       209.570         2.718         0.191         1.307
  YS02164001YS02001641       126.398       208.734         2.697         0.189         1.296
  YS02001641YS02001644       126.456       208.786         2.692         0.189         1.292
  YS02001647YS02001649       216.850       360.701         4.774         0.337         2.332
  YS02006553YS02006556       252.764       427.067         6.783         0.582         3.593
  YS02006556YS02006558       252.692       426.923         6.754         0.577         3.574
  YSB6556YSB1171               8.435        15.130         0.209         0.019         0.111
  YS02001907YS02006553       252.757       427.079         6.787         0.582         3.596
  YS02006558YS02006561       349.137       591.668         8.975         0.742         4.683
  YS02001633YS02163601       127.464       210.374         2.696         0.187         1.290
  YS02001644YS02001647       219.599       365.592         4.814         0.340         2.349
  YS02001745YS02001748        75.073       126.805         2.202         0.180         1.167
  YS02001748YS02001751        74.597       125.683         2.376         0.206         1.285
  YS02001751YS02001754        73.805       124.439         2.362         0.205         1.279
  YS02001754YS02001757        74.675       125.815         2.528         0.228         1.386
  YS02001882YS02001884         0.745         1.180         0.018         0.002         0.009
  YS02001884YS02001887         2.753         4.541         0.061         0.005         0.031
  YS02001890YS02001895       133.057       226.855         2.630         0.200         1.303
  YS02001895YS02001898       132.916       226.655         2.625         0.200         1.300
  YS02001898YS02001901       132.812       226.509         2.622         0.199         1.298
  YS02001901YS02001904       132.687       226.345         2.625         0.200         1.300
  YS02001904YS02001907       132.906       226.737         2.666         0.205         1.327
  YS02001887YS02001890       133.839       228.052         2.684         0.207         1.335
  YS02001652YS02001649        54.933        91.978         1.248         0.090         0.586
  YS02001655YS02001652        55.888        93.471         1.274         0.092         0.598
  YS02001658YS02001655        55.655        93.041         1.194         0.081         0.545
  YS02001661YS02001658        57.505        96.096         1.235         0.083         0.563
  YS02001664YS02001661        61.212       102.160         1.317         0.089         0.601
  YSB1154YSB6556               8.030        14.485         0.162         0.013         0.081
  YSB1174YSB1171               5.541         9.994         0.133         0.012         0.070
  YSB1171HS02004479           15.430        27.451         0.479         0.048         0.266
  HS02004881HS02006253        16.001        29.057         0.427         0.035         0.220
  YS02001793JiankangQianchi       368.839       623.793        10.221         0.888         5.437
  YS02001757CaochengTiaoxuchi       283.498       484.989         6.590         0.506         3.310
  WSF200WS02003060           390.672       666.419        13.979         1.387         7.827
  1                         1797.933      2927.163       144.236        17.577        88.961
  CC-Pump-1                    0.000         0.000         0.000         0.000         0.000
  CC-Pump-2                    0.000         0.000         0.000         0.000         0.000
  JK-Pump-1                  299.995       506.129         8.353         0.726         4.446
  JK-Pump-2                   47.763        83.868         1.076         0.084         0.546
  XR-Pump-1                  449.199       721.885        41.402         5.143        25.779
  XR-Pump-2                  442.158       710.620        40.726         5.058        25.357
  XR-Pump-3                  370.153       595.332        33.864         4.201        21.071
  XR-Pump-4                    0.000         0.000         0.000         0.000         0.000
  

  Analysis begun on:  Sat Jul 10 17:22:11 2021
  Analysis ended on:  Sat Jul 10 17:22:12 2021
  Total elapsed time: 00:00:01